api/pglib_opf_case10192_epigrids__api.m
%%%%%%%%%%%%%%%%%%%%%%%%%%%%%%%%%%%%%%%%%%%%%%%%%%%%%%%%%%%%%%%%%%%%%%%%%%%
%%%%                                                                  %%%%%
%%%%    IEEE PES Power Grid Library - Optimal Power Flow - v23.07     %%%%%
%%%%          (https://github.com/power-grid-lib/pglib-opf)           %%%%%
%%%%             Benchmark Group - Active Power Increase              %%%%%
%%%%                         27 - May - 2023                          %%%%%
%%%%                                                                  %%%%%
%%%%%%%%%%%%%%%%%%%%%%%%%%%%%%%%%%%%%%%%%%%%%%%%%%%%%%%%%%%%%%%%%%%%%%%%%%%
function mpc = pglib_opf_case10192_epigrids__api
mpc.version = '2';
mpc.baseMVA = 100.0;

%% bus data
%	bus_i	type	Pd	Qd	Gs	Bs	area	Vm	Va	baseKV	zone	Vmax	Vmin
mpc.bus = [
	20401	 2	 0.0	 0.0	 0.0	 0.0	 9	    1.00000	    0.00000	 345.0	 1	    1.10000	    0.90000;
	20402	 2	 0.0	 0.0	 0.0	 0.0	 9	    1.00000	    0.00000	 765.0	 1	    1.10000	    0.90000;
	20403	 2	 0.0	 0.0	 0.0	 0.0	 9	    1.00000	    0.00000	 345.0	 1	    1.10000	    0.90000;
	20404	 2	 0.0	 0.0	 0.0	 0.0	 9	    1.00000	    0.00000	 765.0	 1	    1.10000	    0.90000;
	20405	 2	 0.0	 0.0	 0.0	 0.0	 9	    1.00000	    0.00000	 345.0	 1	    1.10000	    0.90000;
	20406	 2	 0.0	 0.0	 0.0	 0.0	 9	    1.00000	    0.00000	 765.0	 1	    1.10000	    0.90000;
	20407	 2	 0.0	 0.0	 0.0	 0.0	 9	    1.00000	    0.00000	 345.0	 1	    1.10000	    0.90000;
	20408	 2	 0.0	 0.0	 0.0	 0.0	 9	    1.00000	    0.00000	 345.0	 1	    1.10000	    0.90000;
	20409	 2	 0.0	 0.0	 0.0	 0.0	 9	    1.00000	    0.00000	 345.0	 1	    1.10000	    0.90000;
	20410	 2	 0.0	 0.0	 0.0	 0.0	 9	    1.00000	    0.00000	 345.0	 1	    1.10000	    0.90000;
	20411	 2	 0.0	 0.0	 0.0	 0.0	 9	    1.00000	    0.00000	 345.0	 1	    1.10000	    0.90000;
	20412	 2	 0.0	 0.0	 0.0	 0.0	 9	    1.00000	    0.00000	 345.0	 1	    1.10000	    0.90000;
	20413	 2	 0.0	 0.0	 0.0	 0.0	 9	    1.00000	    0.00000	 765.0	 1	    1.10000	    0.90000;
	20414	 2	 0.0	 0.0	 0.0	 0.0	 9	    1.00000	    0.00000	 345.0	 1	    1.10000	    0.90000;
	20415	 2	 0.0	 0.0	 0.0	 0.0	 9	    1.00000	    0.00000	 345.0	 1	    1.10000	    0.90000;
	20416	 2	 0.0	 0.0	 0.0	 0.0	 9	    1.00000	    0.00000	 138.0	 1	    1.10000	    0.90000;
	20417	 2	 0.0	 0.0	 0.0	 0.0	 9	    1.00000	    0.00000	 765.0	 1	    1.10000	    0.90000;
	20418	 2	 0.0	 0.0	 0.0	 0.0	 9	    1.00000	    0.00000	 345.0	 1	    1.10000	    0.90000;
	20419	 2	 0.0	 0.0	 0.0	 0.0	 9	    1.00000	    0.00000	 345.0	 1	    1.10000	    0.90000;
	20420	 1	 0.0	 0.0	 0.0	 0.0	 9	    1.00000	    0.00000	 345.0	 1	    1.10000	    0.90000;
	20421	 2	 0.0	 0.0	 0.0	 0.0	 9	    1.00000	    0.00000	 138.0	 1	    1.10000	    0.90000;
	20422	 2	 0.0	 0.0	 0.0	 0.0	 9	    1.00000	    0.00000	 345.0	 1	    1.10000	    0.90000;
	20423	 2	 0.0	 0.0	 0.0	 0.0	 9	    1.00000	    0.00000	 345.0	 1	    1.10000	    0.90000;
	20424	 1	 0.0	 0.0	 0.0	 0.0	 9	    1.00000	    0.00000	 345.0	 1	    1.10000	    0.90000;
	20425	 2	 0.0	 0.0	 0.0	 0.0	 9	    1.00000	    0.00000	 765.0	 1	    1.10000	    0.90000;
	20426	 1	 0.0	 0.0	 0.0	 0.0	 9	    1.00000	    0.00000	 345.0	 1	    1.10000	    0.90000;
	20427	 1	 0.0	 0.0	 0.0	 0.0	 9	    1.00000	    0.00000	 345.0	 1	    1.10000	    0.90000;
	20428	 2	 0.0	 0.0	 0.0	 0.0	 9	    1.00000	    0.00000	 345.0	 1	    1.10000	    0.90000;
	20429	 2	 0.0	 0.0	 0.0	 0.0	 9	    1.00000	    0.00000	 138.0	 1	    1.10000	    0.90000;
	20430	 2	 0.0	 0.0	 0.0	 0.0	 9	    1.00000	    0.00000	 345.0	 1	    1.10000	    0.90000;
	20431	 2	 0.0	 0.0	 0.0	 0.0	 9	    1.00000	    0.00000	 138.0	 1	    1.10000	    0.90000;
	20432	 2	 0.0	 0.0	 0.0	 0.0	 9	    1.00000	    0.00000	 138.0	 1	    1.10000	    0.90000;
	20433	 2	 0.0	 0.0	 0.0	 0.0	 9	    1.00000	    0.00000	 138.0	 1	    1.10000	    0.90000;
	20434	 2	 0.0	 0.0	 0.0	 0.0	 9	    1.00000	    0.00000	 138.0	 1	    1.10000	    0.90000;
	20435	 2	 0.0	 0.0	 0.0	 0.0	 9	    1.00000	    0.00000	 138.0	 1	    1.10000	    0.90000;
	20436	 2	 0.0	 0.0	 0.0	 0.0	 9	    1.00000	    0.00000	 345.0	 1	    1.10000	    0.90000;
	20437	 2	 0.0	 0.0	 0.0	 0.0	 9	    1.00000	    0.00000	 345.0	 1	    1.10000	    0.90000;
	20438	 2	 0.0	 0.0	 0.0	 0.0	 9	    1.00000	    0.00000	 345.0	 1	    1.10000	    0.90000;
	20439	 2	 0.0	 0.0	 0.0	 0.0	 9	    1.00000	    0.00000	 138.0	 1	    1.10000	    0.90000;
	20440	 2	 0.0	 0.0	 0.0	 0.0	 9	    1.00000	    0.00000	 345.0	 1	    1.10000	    0.90000;
	20441	 1	 0.0	 0.0	 0.0	 0.0	 9	    1.00000	    0.00000	 345.0	 1	    1.10000	    0.90000;
	20442	 2	 0.0	 0.0	 0.0	 0.0	 9	    1.00000	    0.00000	 345.0	 1	    1.10000	    0.90000;
	20443	 1	 0.0	 0.0	 0.0	 0.0	 9	    1.00000	    0.00000	 345.0	 1	    1.10000	    0.90000;
	20444	 2	 0.0	 0.0	 0.0	 0.0	 9	    1.00000	    0.00000	 138.0	 1	    1.10000	    0.90000;
	20445	 2	 0.0	 0.0	 0.0	 0.0	 9	    1.00000	    0.00000	 138.0	 1	    1.10000	    0.90000;
	20446	 2	 0.0	 0.0	 0.0	 0.0	 9	    1.00000	    0.00000	 138.0	 1	    1.10000	    0.90000;
	20447	 1	 0.0	 0.0	 0.0	 0.0	 9	    1.00000	    0.00000	 345.0	 1	    1.10000	    0.90000;
	20448	 2	 0.0	 0.0	 0.0	 0.0	 9	    1.00000	    0.00000	 138.0	 1	    1.10000	    0.90000;
	20449	 2	 0.0	 0.0	 0.0	 0.0	 9	    1.00000	    0.00000	 138.0	 1	    1.10000	    0.90000;
	20450	 2	 0.0	 0.0	 0.0	 0.0	 9	    1.00000	    0.00000	 138.0	 1	    1.10000	    0.90000;
	20451	 2	 0.0	 0.0	 0.0	 0.0	 9	    1.00000	    0.00000	 69.0	 1	    1.10000	    0.90000;
	20452	 2	 0.0	 0.0	 0.0	 0.0	 9	    1.00000	    0.00000	 69.0	 1	    1.10000	    0.90000;
	20453	 2	 0.0	 0.0	 0.0	 0.0	 9	    1.00000	    0.00000	 69.0	 1	    1.10000	    0.90000;
	20454	 2	 0.0	 0.0	 0.0	 0.0	 9	    1.00000	    0.00000	 69.0	 1	    1.10000	    0.90000;
	20455	 2	 0.0	 0.0	 0.0	 0.0	 9	    1.00000	    0.00000	 138.0	 1	    1.10000	    0.90000;
	20456	 1	 0.0	 0.0	 0.0	 0.0	 9	    1.00000	    0.00000	 138.0	 1	    1.10000	    0.90000;
	20457	 2	 0.0	 0.0	 0.0	 0.0	 9	    1.00000	    0.00000	 138.0	 1	    1.10000	    0.90000;
	20458	 2	 0.0	 0.0	 0.0	 0.0	 17	    1.00000	    0.00000	 765.0	 1	    1.10000	    0.90000;
	20459	 2	 0.0	 0.0	 0.0	 0.0	 17	    1.00000	    0.00000	 765.0	 1	    1.10000	    0.90000;
	20460	 2	 0.0	 0.0	 0.0	 0.0	 17	    1.00000	    0.00000	 345.0	 1	    1.10000	    0.90000;
	20461	 2	 0.0	 0.0	 0.0	 0.0	 17	    1.00000	    0.00000	 765.0	 1	    1.10000	    0.90000;
	20462	 2	 0.0	 0.0	 0.0	 0.0	 17	    1.00000	    0.00000	 345.0	 1	    1.10000	    0.90000;
	20463	 2	 0.0	 0.0	 0.0	 0.0	 17	    1.00000	    0.00000	 345.0	 1	    1.10000	    0.90000;
	20464	 2	 0.0	 0.0	 0.0	 0.0	 17	    1.00000	    0.00000	 345.0	 1	    1.10000	    0.90000;
	20465	 2	 0.0	 0.0	 0.0	 0.0	 17	    1.00000	    0.00000	 345.0	 1	    1.10000	    0.90000;
	20466	 2	 0.0	 0.0	 0.0	 0.0	 17	    1.00000	    0.00000	 138.0	 1	    1.10000	    0.90000;
	20467	 2	 0.0	 0.0	 0.0	 0.0	 17	    1.00000	    0.00000	 345.0	 1	    1.10000	    0.90000;
	20468	 2	 0.0	 0.0	 0.0	 0.0	 17	    1.00000	    0.00000	 345.0	 1	    1.10000	    0.90000;
	20469	 2	 0.0	 0.0	 0.0	 0.0	 17	    1.00000	    0.00000	 345.0	 1	    1.10000	    0.90000;
	20470	 2	 0.0	 0.0	 0.0	 0.0	 17	    1.00000	    0.00000	 138.0	 1	    1.10000	    0.90000;
	20471	 2	 0.0	 0.0	 0.0	 0.0	 17	    1.00000	    0.00000	 345.0	 1	    1.10000	    0.90000;
	20472	 2	 0.0	 0.0	 0.0	 0.0	 17	    1.00000	    0.00000	 138.0	 1	    1.10000	    0.90000;
	20473	 2	 0.0	 0.0	 0.0	 0.0	 17	    1.00000	    0.00000	 345.0	 1	    1.10000	    0.90000;
	20474	 1	 0.0	 0.0	 0.0	 0.0	 17	    1.00000	    0.00000	 345.0	 1	    1.10000	    0.90000;
	20475	 2	 0.0	 0.0	 0.0	 0.0	 17	    1.00000	    0.00000	 138.0	 1	    1.10000	    0.90000;
	20476	 2	 0.0	 0.0	 0.0	 0.0	 17	    1.00000	    0.00000	 345.0	 1	    1.10000	    0.90000;
	20477	 2	 0.0	 0.0	 0.0	 0.0	 17	    1.00000	    0.00000	 345.0	 1	    1.10000	    0.90000;
	20478	 1	 0.0	 0.0	 0.0	 0.0	 17	    1.00000	    0.00000	 765.0	 1	    1.10000	    0.90000;
	20479	 2	 0.0	 0.0	 0.0	 0.0	 17	    1.00000	    0.00000	 345.0	 1	    1.10000	    0.90000;
	20480	 2	 0.0	 0.0	 0.0	 0.0	 17	    1.00000	    0.00000	 345.0	 1	    1.10000	    0.90000;
	20481	 2	 0.0	 0.0	 0.0	 0.0	 17	    1.00000	    0.00000	 138.0	 1	    1.10000	    0.90000;
	20482	 1	 0.0	 0.0	 0.0	 0.0	 17	    1.00000	    0.00000	 345.0	 1	    1.10000	    0.90000;
	20483	 2	 0.0	 0.0	 0.0	 0.0	 17	    1.00000	    0.00000	 138.0	 1	    1.10000	    0.90000;
	20484	 1	 0.0	 0.0	 0.0	 0.0	 17	    1.00000	    0.00000	 345.0	 1	    1.10000	    0.90000;
	20485	 2	 0.0	 0.0	 0.0	 0.0	 17	    1.00000	    0.00000	 138.0	 1	    1.10000	    0.90000;
	20486	 1	 0.0	 0.0	 0.0	 0.0	 17	    1.00000	    0.00000	 345.0	 1	    1.10000	    0.90000;
	20487	 2	 0.0	 0.0	 0.0	 0.0	 17	    1.00000	    0.00000	 138.0	 1	    1.10000	    0.90000;
	20488	 1	 0.0	 0.0	 0.0	 0.0	 17	    1.00000	    0.00000	 138.0	 1	    1.10000	    0.90000;
	20489	 2	 0.0	 0.0	 0.0	 0.0	 17	    1.00000	    0.00000	 138.0	 1	    1.10000	    0.90000;
	20490	 2	 0.0	 0.0	 0.0	 0.0	 17	    1.00000	    0.00000	 138.0	 1	    1.10000	    0.90000;
	20491	 1	 0.0	 0.0	 0.0	 0.0	 17	    1.00000	    0.00000	 138.0	 1	    1.10000	    0.90000;
	20492	 1	 0.0	 0.0	 0.0	 0.0	 17	    1.00000	    0.00000	 138.0	 1	    1.10000	    0.90000;
	20493	 2	 0.0	 0.0	 0.0	 0.0	 17	    1.00000	    0.00000	 69.0	 1	    1.10000	    0.90000;
	20494	 2	 0.0	 0.0	 0.0	 0.0	 17	    1.00000	    0.00000	 138.0	 1	    1.10000	    0.90000;
	20495	 1	 0.0	 0.0	 0.0	 0.0	 17	    1.00000	    0.00000	 138.0	 1	    1.10000	    0.90000;
	20496	 2	 0.0	 0.0	 0.0	 0.0	 17	    1.00000	    0.00000	 69.0	 1	    1.10000	    0.90000;
	20497	 2	 0.0	 0.0	 0.0	 0.0	 17	    1.00000	    0.00000	 69.0	 1	    1.10000	    0.90000;
	20498	 2	 0.0	 0.0	 0.0	 0.0	 17	    1.00000	    0.00000	 69.0	 1	    1.10000	    0.90000;
	20499	 1	 0.0	 0.0	 0.0	 0.0	 17	    1.00000	    0.00000	 138.0	 1	    1.10000	    0.90000;
	20500	 2	 0.0	 0.0	 0.0	 0.0	 17	    1.00000	    0.00000	 345.0	 1	    1.10000	    0.90000;
	20501	 1	 0.0	 0.0	 0.0	 0.0	 17	    1.00000	    0.00000	 138.0	 1	    1.10000	    0.90000;
	20502	 2	 0.0	 0.0	 0.0	 0.0	 17	    1.00000	    0.00000	 138.0	 1	    1.10000	    0.90000;
	20503	 1	 0.0	 0.0	 0.0	 0.0	 17	    1.00000	    0.00000	 138.0	 1	    1.10000	    0.90000;
	20504	 2	 0.0	 0.0	 0.0	 0.0	 17	    1.00000	    0.00000	 69.0	 1	    1.10000	    0.90000;
	20505	 2	 0.0	 0.0	 0.0	 0.0	 17	    1.00000	    0.00000	 345.0	 1	    1.10000	    0.90000;
	20506	 2	 0.0	 0.0	 0.0	 0.0	 17	    1.00000	    0.00000	 69.0	 1	    1.10000	    0.90000;
	20507	 2	 0.0	 0.0	 0.0	 0.0	 17	    1.00000	    0.00000	 138.0	 1	    1.10000	    0.90000;
	20508	 1	 0.0	 0.0	 0.0	 0.0	 17	    1.00000	    0.00000	 138.0	 1	    1.10000	    0.90000;
	20509	 2	 0.0	 0.0	 0.0	 0.0	 17	    1.00000	    0.00000	 69.0	 1	    1.10000	    0.90000;
	20510	 2	 0.0	 0.0	 0.0	 0.0	 17	    1.00000	    0.00000	 69.0	 1	    1.10000	    0.90000;
	20511	 1	 0.0	 0.0	 0.0	 0.0	 17	    1.00000	    0.00000	 345.0	 1	    1.10000	    0.90000;
	20512	 2	 0.0	 0.0	 0.0	 0.0	 17	    1.00000	    0.00000	 69.0	 1	    1.10000	    0.90000;
	20513	 2	 0.0	 0.0	 0.0	 0.0	 17	    1.00000	    0.00000	 69.0	 1	    1.10000	    0.90000;
	20514	 2	 0.0	 0.0	 0.0	 0.0	 17	    1.00000	    0.00000	 69.0	 1	    1.10000	    0.90000;
	20515	 2	 0.0	 0.0	 0.0	 0.0	 17	    1.00000	    0.00000	 69.0	 1	    1.10000	    0.90000;
	20516	 2	 0.0	 0.0	 0.0	 0.0	 17	    1.00000	    0.00000	 138.0	 1	    1.10000	    0.90000;
	20517	 2	 0.0	 0.0	 0.0	 0.0	 17	    1.00000	    0.00000	 69.0	 1	    1.10000	    0.90000;
	20518	 2	 0.0	 0.0	 0.0	 0.0	 17	    1.00000	    0.00000	 69.0	 1	    1.10000	    0.90000;
	20519	 1	 0.0	 0.0	 0.0	 0.0	 17	    1.00000	    0.00000	 138.0	 1	    1.10000	    0.90000;
	20520	 2	 0.0	 0.0	 0.0	 0.0	 17	    1.00000	    0.00000	 69.0	 1	    1.10000	    0.90000;
	20521	 1	 0.0	 0.0	 0.0	 0.0	 17	    1.00000	    0.00000	 138.0	 1	    1.10000	    0.90000;
	20522	 2	 0.0	 0.0	 0.0	 0.0	 17	    1.00000	    0.00000	 69.0	 1	    1.10000	    0.90000;
	20523	 2	 0.0	 0.0	 0.0	 0.0	 17	    1.00000	    0.00000	 69.0	 1	    1.10000	    0.90000;
	20524	 2	 0.0	 0.0	 0.0	 0.0	 17	    1.00000	    0.00000	 138.0	 1	    1.10000	    0.90000;
	20525	 1	 0.0	 0.0	 0.0	 0.0	 17	    1.00000	    0.00000	 138.0	 1	    1.10000	    0.90000;
	20526	 1	 0.0	 0.0	 0.0	 0.0	 17	    1.00000	    0.00000	 138.0	 1	    1.10000	    0.90000;
	20527	 2	 0.0	 0.0	 0.0	 0.0	 17	    1.00000	    0.00000	 138.0	 1	    1.10000	    0.90000;
	20528	 2	 0.0	 0.0	 0.0	 0.0	 17	    1.00000	    0.00000	 69.0	 1	    1.10000	    0.90000;
	20529	 2	 0.0	 0.0	 0.0	 0.0	 17	    1.00000	    0.00000	 69.0	 1	    1.10000	    0.90000;
	20530	 2	 0.0	 0.0	 0.0	 0.0	 17	    1.00000	    0.00000	 69.0	 1	    1.10000	    0.90000;
	20531	 2	 0.0	 0.0	 0.0	 0.0	 27	    1.00000	    0.00000	 765.0	 1	    1.10000	    0.90000;
	20532	 3	 0.0	 0.0	 0.0	 0.0	 27	    1.00000	    0.00000	 345.0	 1	    1.10000	    0.90000;
	20533	 2	 0.0	 0.0	 0.0	 0.0	 27	    1.00000	    0.00000	 765.0	 1	    1.10000	    0.90000;
	20534	 2	 0.0	 0.0	 0.0	 0.0	 27	    1.00000	    0.00000	 345.0	 1	    1.10000	    0.90000;
	20535	 2	 0.0	 0.0	 0.0	 0.0	 27	    1.00000	    0.00000	 345.0	 1	    1.10000	    0.90000;
	20536	 2	 0.0	 0.0	 0.0	 0.0	 27	    1.00000	    0.00000	 345.0	 1	    1.10000	    0.90000;
	20537	 2	 0.0	 0.0	 0.0	 0.0	 27	    1.00000	    0.00000	 765.0	 1	    1.10000	    0.90000;
	20538	 2	 0.0	 0.0	 0.0	 0.0	 27	    1.00000	    0.00000	 345.0	 1	    1.10000	    0.90000;
	20539	 1	 0.0	 0.0	 0.0	 0.0	 27	    1.00000	    0.00000	 345.0	 1	    1.10000	    0.90000;
	20540	 2	 0.0	 0.0	 0.0	 0.0	 27	    1.00000	    0.00000	 138.0	 1	    1.10000	    0.90000;
	20541	 2	 0.0	 0.0	 0.0	 0.0	 27	    1.00000	    0.00000	 765.0	 1	    1.10000	    0.90000;
	20542	 2	 0.0	 0.0	 0.0	 0.0	 27	    1.00000	    0.00000	 345.0	 1	    1.10000	    0.90000;
	20543	 2	 0.0	 0.0	 0.0	 0.0	 27	    1.00000	    0.00000	 345.0	 1	    1.10000	    0.90000;
	20544	 2	 0.0	 0.0	 0.0	 0.0	 27	    1.00000	    0.00000	 345.0	 1	    1.10000	    0.90000;
	20545	 2	 0.0	 0.0	 0.0	 0.0	 27	    1.00000	    0.00000	 345.0	 1	    1.10000	    0.90000;
	20546	 2	 0.0	 0.0	 0.0	 0.0	 27	    1.00000	    0.00000	 345.0	 1	    1.10000	    0.90000;
	20547	 2	 0.0	 0.0	 0.0	 0.0	 27	    1.00000	    0.00000	 345.0	 1	    1.10000	    0.90000;
	20548	 2	 0.0	 0.0	 0.0	 0.0	 27	    1.00000	    0.00000	 345.0	 1	    1.10000	    0.90000;
	20549	 2	 0.0	 0.0	 0.0	 0.0	 27	    1.00000	    0.00000	 765.0	 1	    1.10000	    0.90000;
	20550	 2	 0.0	 0.0	 0.0	 0.0	 27	    1.00000	    0.00000	 345.0	 1	    1.10000	    0.90000;
	20551	 2	 0.0	 0.0	 0.0	 0.0	 27	    1.00000	    0.00000	 138.0	 1	    1.10000	    0.90000;
	20552	 2	 0.0	 0.0	 0.0	 0.0	 27	    1.00000	    0.00000	 138.0	 1	    1.10000	    0.90000;
	20553	 2	 0.0	 0.0	 0.0	 0.0	 27	    1.00000	    0.00000	 138.0	 1	    1.10000	    0.90000;
	20554	 2	 0.0	 0.0	 0.0	 0.0	 27	    1.00000	    0.00000	 345.0	 1	    1.10000	    0.90000;
	20555	 2	 0.0	 0.0	 0.0	 0.0	 27	    1.00000	    0.00000	 345.0	 1	    1.10000	    0.90000;
	20556	 2	 0.0	 0.0	 0.0	 0.0	 27	    1.00000	    0.00000	 138.0	 1	    1.10000	    0.90000;
	20557	 2	 0.0	 0.0	 0.0	 0.0	 27	    1.00000	    0.00000	 345.0	 1	    1.10000	    0.90000;
	20558	 1	 0.0	 0.0	 0.0	 0.0	 27	    1.00000	    0.00000	 345.0	 1	    1.10000	    0.90000;
	20559	 2	 0.0	 0.0	 0.0	 0.0	 27	    1.00000	    0.00000	 345.0	 1	    1.10000	    0.90000;
	20560	 2	 0.0	 0.0	 0.0	 0.0	 27	    1.00000	    0.00000	 345.0	 1	    1.10000	    0.90000;
	20561	 2	 0.0	 0.0	 0.0	 0.0	 27	    1.00000	    0.00000	 345.0	 1	    1.10000	    0.90000;
	20562	 2	 0.0	 0.0	 0.0	 0.0	 27	    1.00000	    0.00000	 345.0	 1	    1.10000	    0.90000;
	20563	 2	 0.0	 0.0	 0.0	 0.0	 27	    1.00000	    0.00000	 345.0	 1	    1.10000	    0.90000;
	20564	 2	 0.0	 0.0	 0.0	 0.0	 27	    1.00000	    0.00000	 345.0	 1	    1.10000	    0.90000;
	20565	 2	 0.0	 0.0	 0.0	 0.0	 27	    1.00000	    0.00000	 345.0	 1	    1.10000	    0.90000;
	20566	 2	 0.0	 0.0	 0.0	 0.0	 27	    1.00000	    0.00000	 138.0	 1	    1.10000	    0.90000;
	20567	 2	 0.0	 0.0	 0.0	 0.0	 27	    1.00000	    0.00000	 345.0	 1	    1.10000	    0.90000;
	20568	 2	 0.0	 0.0	 0.0	 0.0	 27	    1.00000	    0.00000	 345.0	 1	    1.10000	    0.90000;
	20569	 2	 0.0	 0.0	 0.0	 0.0	 27	    1.00000	    0.00000	 138.0	 1	    1.10000	    0.90000;
	20570	 2	 0.0	 0.0	 0.0	 0.0	 27	    1.00000	    0.00000	 138.0	 1	    1.10000	    0.90000;
	20571	 2	 0.0	 0.0	 0.0	 0.0	 27	    1.00000	    0.00000	 69.0	 1	    1.10000	    0.90000;
	20572	 2	 0.0	 0.0	 0.0	 0.0	 27	    1.00000	    0.00000	 69.0	 1	    1.10000	    0.90000;
	20573	 2	 0.0	 0.0	 0.0	 0.0	 27	    1.00000	    0.00000	 138.0	 1	    1.10000	    0.90000;
	20574	 1	 0.0	 0.0	 0.0	 0.0	 27	    1.00000	    0.00000	 138.0	 1	    1.10000	    0.90000;
	20575	 2	 0.0	 0.0	 0.0	 0.0	 27	    1.00000	    0.00000	 69.0	 1	    1.10000	    0.90000;
	20576	 1	 0.0	 0.0	 0.0	 0.0	 27	    1.00000	    0.00000	 138.0	 1	    1.10000	    0.90000;
	20577	 2	 0.0	 0.0	 0.0	 0.0	 27	    1.00000	    0.00000	 138.0	 1	    1.10000	    0.90000;
	20578	 2	 0.0	 0.0	 0.0	 0.0	 27	    1.00000	    0.00000	 138.0	 1	    1.10000	    0.90000;
	20579	 2	 0.0	 0.0	 0.0	 0.0	 27	    1.00000	    0.00000	 69.0	 1	    1.10000	    0.90000;
	20580	 2	 0.0	 0.0	 0.0	 0.0	 27	    1.00000	    0.00000	 69.0	 1	    1.10000	    0.90000;
	20581	 2	 0.0	 0.0	 0.0	 0.0	 27	    1.00000	    0.00000	 138.0	 1	    1.10000	    0.90000;
	20582	 1	 0.0	 0.0	 0.0	 0.0	 27	    1.00000	    0.00000	 138.0	 1	    1.10000	    0.90000;
	20583	 1	 0.0	 0.0	 0.0	 0.0	 27	    1.00000	    0.00000	 138.0	 1	    1.10000	    0.90000;
	20584	 2	 0.0	 0.0	 0.0	 0.0	 27	    1.00000	    0.00000	 138.0	 1	    1.10000	    0.90000;
	20585	 2	 0.0	 0.0	 0.0	 0.0	 27	    1.00000	    0.00000	 138.0	 1	    1.10000	    0.90000;
	20586	 1	 0.0	 0.0	 0.0	 0.0	 27	    1.00000	    0.00000	 138.0	 1	    1.10000	    0.90000;
	20587	 2	 0.0	 0.0	 0.0	 0.0	 27	    1.00000	    0.00000	 138.0	 1	    1.10000	    0.90000;
	20588	 2	 0.0	 0.0	 0.0	 0.0	 27	    1.00000	    0.00000	 69.0	 1	    1.10000	    0.90000;
	20589	 2	 0.0	 0.0	 0.0	 0.0	 27	    1.00000	    0.00000	 345.0	 1	    1.10000	    0.90000;
	20590	 2	 0.0	 0.0	 0.0	 0.0	 27	    1.00000	    0.00000	 138.0	 1	    1.10000	    0.90000;
	20591	 2	 0.0	 0.0	 0.0	 0.0	 27	    1.00000	    0.00000	 69.0	 1	    1.10000	    0.90000;
	20592	 2	 0.0	 0.0	 0.0	 0.0	 27	    1.00000	    0.00000	 69.0	 1	    1.10000	    0.90000;
	20593	 1	 20.54	 4.25	 0.0	 0.0	 9	    1.00000	    0.00000	 138.0	 1	    1.10000	    0.90000;
	20594	 1	 101.47	 19.91	 0.0	 0.0	 9	    1.00000	    0.00000	 138.0	 1	    1.10000	    0.90000;
	20595	 1	 23.88	 4.67	 0.0	 0.0	 9	    1.00000	    0.00000	 138.0	 1	    1.10000	    0.90000;
	20596	 1	 6.44	 1.26	 0.0	 0.0	 9	    1.00000	    0.00000	 138.0	 1	    1.10000	    0.90000;
	20597	 1	 0.0	 0.0	 0.0	 0.0	 9	    1.00000	    0.00000	 138.0	 1	    1.10000	    0.90000;
	20598	 1	 0.0	 0.0	 0.0	 0.0	 9	    1.00000	    0.00000	 138.0	 1	    1.10000	    0.90000;
	20599	 1	 23.30	 5.38	 0.0	 0.0	 9	    1.00000	    0.00000	 138.0	 1	    1.10000	    0.90000;
	20600	 1	 0.0	 0.0	 0.0	 0.0	 9	    1.00000	    0.00000	 138.0	 1	    1.10000	    0.90000;
...
];

%% generator data
%	bus	Pg	Qg	Qmax	Qmin	Vg	mBase	status	Pmax	Pmin	Pc1	Pc2	Qc1min	Qc1max	Qc2min	Qc2max	ramp_agc	ramp_10	ramp_30	ramp_q	apf
mpc.gen = [
	20401	 809.5	 0.0	 1599.6	 -1599.6	 1.0	 100.0	 1	 1369	 250.0	 0.0	 0.0	 0.0	 0.0	 0.0	 0.0	 0.0	 0.0	 0.0	 0.0	 1300.0; % NUC
	20401	 0.0	 0.0	 629.6	 -433.3	 1.0	 100.0	 0	 117	 500.0	 0.0	 0.0	 0.0	 0.0	 0.0	 0.0	 0.0	 0.0	 0.0	 0.0	 1300.0; % COW
	20402	 312.0	 0.0	 883.2	 -883.2	 1.0	 100.0	 1	 499	 125.0	 0.0	 0.0	 0.0	 0.0	 0.0	 0.0	 0.0	 0.0	 0.0	 0.0	 667.9; % NG
	20402	 193.0	 0.0	 883.2	 -883.2	 1.0	 100.0	 1	 261	 125.0	 0.0	 0.0	 0.0	 0.0	 0.0	 0.0	 0.0	 0.0	 0.0	 0.0	 667.9; % COW
	20402	 198.5	 0.0	 883.2	 -883.2	 1.0	 100.0	 1	 272	 125.0	 0.0	 0.0	 0.0	 0.0	 0.0	 0.0	 0.0	 0.0	 0.0	 0.0	 667.9; % NG
	20402	 399.0	 0.0	 883.2	 -883.2	 1.0	 100.0	 1	 683	 115.0	 0.0	 0.0	 0.0	 0.0	 0.0	 0.0	 0.0	 0.0	 0.0	 0.0	 667.9; % COW
	20402	 409.5	 0.0	 883.2	 -883.2	 1.0	 100.0	 1	 704	 115.0	 0.0	 0.0	 0.0	 0.0	 0.0	 0.0	 0.0	 0.0	 0.0	 0.0	 667.9; % COW
	20403	 425.9875	 0.0	 421.0	 -421.0	 1.0	 100.0	 1	 842	 9.975	 0.0	 0.0	 0.0	 0.0	 0.0	 0.0	 0.0	 0.0	 0.0	 0.0	 70.0; % NG
	20403	 437.9875	 0.0	 433.0	 -433.0	 1.0	 100.0	 1	 866	 9.975	 0.0	 0.0	 0.0	 0.0	 0.0	 0.0	 0.0	 0.0	 0.0	 0.0	 70.0; % PEL
	20403	 994.0	 0.0	 917.0	 -917.0	 1.0	 100.0	 1	 1833	 155.0	 0.0	 0.0	 0.0	 0.0	 0.0	 0.0	 0.0	 0.0	 0.0	 0.0	 540.0; % COW
	20404	 475.0	 0.0	 410.0	 -410.0	 1.0	 100.0	 1	 820	 130.0	 0.0	 0.0	 0.0	 0.0	 0.0	 0.0	 0.0	 0.0	 0.0	 0.0	 540.0; % NG
	20404	 475.0	 0.0	 410.0	 -410.0	 1.0	 100.0	 1	 820	 130.0	 0.0	 0.0	 0.0	 0.0	 0.0	 0.0	 0.0	 0.0	 0.0	 0.0	 540.0; % NG
	20405	 140.75	 0.0	 127.0	 -127.0	 1.0	 100.0	 1	 254	 27.5	 0.0	 0.0	 0.0	 0.0	 0.0	 0.0	 0.0	 0.0	 0.0	 0.0	 112.5; % NG
	20405	 427.5	 0.0	 353.0	 -353.0	 1.0	 100.0	 1	 705	 150.0	 0.0	 0.0	 0.0	 0.0	 0.0	 0.0	 0.0	 0.0	 0.0	 0.0	 531.0; % COW
	20405	 253.5	 30.6	 257.2	 -196.0	 1.0	 100.0	 1	 392	 115.0	 0.0	 0.0	 0.0	 0.0	 0.0	 0.0	 0.0	 0.0	 0.0	 0.0	 531.0; % NG
	20406	 267.75	 96.1	 415.8	 -223.6	 1.0	 100.0	 1	 423	 112.5	 0.0	 0.0	 0.0	 0.0	 0.0	 0.0	 0.0	 0.0	 0.0	 0.0	 670.9; % COW
	20406	 467.5	 1.4	 415.8	 -413.0	 1.0	 100.0	 1	 825	 110.0	 0.0	 0.0	 0.0	 0.0	 0.0	 0.0	 0.0	 0.0	 0.0	 0.0	 670.9; % COW
	20406	 184.0	 11.25	 174.5	 -152.0	 1.0	 100.0	 1	 303	 65.0	 0.0	 0.0	 0.0	 0.0	 0.0	 0.0	 0.0	 0.0	 0.0	 0.0	 281.6; % NG
	20406	 300.75	 39.65	 324.3	 -245.0	 1.0	 100.0	 1	 489	 112.5	 0.0	 0.0	 0.0	 0.0	 0.0	 0.0	 0.0	 0.0	 0.0	 0.0	 523.3; % NG
	20407	 27.5	 0.0	 284.4	 -284.4	 1.0	 100.0	 1	 50	 5.0	 0.0	 0.0	 0.0	 0.0	 0.0	 0.0	 0.0	 0.0	 0.0	 0.0	 88.2; % NG
	20407	 19.0	 0.0	 284.4	 -284.4	 1.0	 100.0	 1	 33	 5.0	 0.0	 0.0	 0.0	 0.0	 0.0	 0.0	 0.0	 0.0	 0.0	 0.0	 88.2; % NG
	20407	 162.5	 0.0	 284.4	 -284.4	 1.0	 100.0	 1	 265	 60.0	 0.0	 0.0	 0.0	 0.0	 0.0	 0.0	 0.0	 0.0	 0.0	 0.0	 265.2; % NG
	20407	 248.5	 0.0	 284.4	 -284.4	 1.0	 100.0	 1	 437	 60.0	 0.0	 0.0	 0.0	 0.0	 0.0	 0.0	 0.0	 0.0	 0.0	 0.0	 265.2; % COW
	20408	 137.75	 3.4	 146.0	 -139.2	 1.0	 100.0	 1	 194	 81.5	 0.0	 0.0	 0.0	 0.0	 0.0	 0.0	 0.0	 0.0	 0.0	 0.0	 217.3; % NG
	20408	 215.25	 0.0	 175.0	 -175.0	 1.0	 100.0	 1	 349	 81.5	 0.0	 0.0	 0.0	 0.0	 0.0	 0.0	 0.0	 0.0	 0.0	 0.0	 217.3; % NG
	20408	 198.75	 0.0	 158.0	 -158.0	 1.0	 100.0	 1	 316	 81.5	 0.0	 0.0	 0.0	 0.0	 0.0	 0.0	 0.0	 0.0	 0.0	 0.0	 217.3; % NG
	20408	 198.75	 0.0	 158.0	 -158.0	 1.0	 100.0	 1	 316	 81.5	 0.0	 0.0	 0.0	 0.0	 0.0	 0.0	 0.0	 0.0	 0.0	 0.0	 217.3; % NG
	20408	 149.75	 3.4	 146.0	 -139.2	 1.0	 100.0	 1	 218	 81.5	 0.0	 0.0	 0.0	 0.0	 0.0	 0.0	 0.0	 0.0	 0.0	 0.0	 217.3; % NG
	20408	 155.25	 3.4	 146.0	 -139.2	 1.0	 100.0	 1	 229	 81.5	 0.0	 0.0	 0.0	 0.0	 0.0	 0.0	 0.0	 0.0	 0.0	 0.0	 217.3; % NG
	20409	 524.0	 0.0	 497.0	 -497.0	 1.0	 100.0	 1	 993	 55.0	 0.0	 0.0	 0.0	 0.0	 0.0	 0.0	 0.0	 0.0	 0.0	 0.0	 203.2; % NG
	20409	 396.5	 0.0	 369.0	 -369.0	 1.0	 100.0	 1	 738	 55.0	 0.0	 0.0	 0.0	 0.0	 0.0	 0.0	 0.0	 0.0	 0.0	 0.0	 203.2; % NG
	20409	 399.5	 0.0	 372.0	 -372.0	 1.0	 100.0	 1	 744	 55.0	 0.0	 0.0	 0.0	 0.0	 0.0	 0.0	 0.0	 0.0	 0.0	 0.0	 213.0; % NG
	20410	 434.4	 0.0	 562.8	 -562.8	 1.0	 100.0	 1	 868	 0.8	 0.0	 0.0	 0.0	 0.0	 0.0	 0.0	 0.0	 0.0	 0.0	 0.0	 0.0; % NG
	20411	 114.5	 0.0	 393.6	 -393.6	 1.0	 100.0	 1	 179	 50.0	 0.0	 0.0	 0.0	 0.0	 0.0	 0.0	 0.0	 0.0	 0.0	 0.0	 190.4; % COW
	20411	 48.5	 0.0	 393.6	 -393.6	 1.0	 100.0	 1	 87	 10.0	 0.0	 0.0	 0.0	 0.0	 0.0	 0.0	 0.0	 0.0	 0.0	 0.0	 37.5; % PEL
	20411	 163.5	 0.0	 393.6	 -393.6	 1.0	 100.0	 1	 252	 75.0	 0.0	 0.0	 0.0	 0.0	 0.0	 0.0	 0.0	 0.0	 0.0	 0.0	 413.1; % NG
	20412	 192.0	 0.0	 169.0	 -169.0	 1.0	 100.0	 1	 338	 46.0	 0.0	 0.0	 0.0	 0.0	 0.0	 0.0	 0.0	 0.0	 0.0	 0.0	 181.9; % NG
	20412	 159.5	 0.0	 137.0	 -137.0	 1.0	 100.0	 1	 273	 46.0	 0.0	 0.0	 0.0	 0.0	 0.0	 0.0	 0.0	 0.0	 0.0	 0.0	 181.9; % NG
	20412	 107.25	 1.1	 103.2	 -101.0	 1.0	 100.0	 1	 202	 12.5	 0.0	 0.0	 0.0	 0.0	 0.0	 0.0	 0.0	 0.0	 0.0	 0.0	 213.0; % NG
	20413	 103.0	 0.0	 244.8	 -244.8	 1.0	 100.0	 1	 171	 35.0	 0.0	 0.0	 0.0	 0.0	 0.0	 0.0	 0.0	 0.0	 0.0	 0.0	 174.0; % NG
	20413	 196.0	 0.0	 244.8	 -244.8	 1.0	 100.0	 1	 357	 35.0	 0.0	 0.0	 0.0	 0.0	 0.0	 0.0	 0.0	 0.0	 0.0	 0.0	 174.0; % NG
	20413	 61.0	 0.0	 244.8	 -244.8	 1.0	 100.0	 1	 87	 35.0	 0.0	 0.0	 0.0	 0.0	 0.0	 0.0	 0.0	 0.0	 0.0	 0.0	 174.0; % NG
	20413	 60.5	 0.0	 244.8	 -244.8	 1.0	 100.0	 1	 86	 35.0	 0.0	 0.0	 0.0	 0.0	 0.0	 0.0	 0.0	 0.0	 0.0	 0.0	 174.0; % NG
	20413	 118.5	 0.0	 244.8	 -244.8	 1.0	 100.0	 1	 202	 35.0	 0.0	 0.0	 0.0	 0.0	 0.0	 0.0	 0.0	 0.0	 0.0	 0.0	 268.0; % NG
	20413	 95.5	 0.0	 244.8	 -244.8	 1.0	 100.0	 1	 156	 35.0	 0.0	 0.0	 0.0	 0.0	 0.0	 0.0	 0.0	 0.0	 0.0	 0.0	 268.0; % NG
	20414	 60.0	 0.0	 5664.0	 -5664.0	 1.0	 100.0	 1	 93	 27.0	 0.0	 0.0	 0.0	 0.0	 0.0	 0.0	 0.0	 0.0	 0.0	 0.0	 100.0; % NG
	20414	 13.9625	 0.0	 2092.8	 -2092.8	 1.0	 100.0	 1	 25	 2.925	 0.0	 0.0	 0.0	 0.0	 0.0	 0.0	 0.0	 0.0	 0.0	 0.0	 28.05; % NG
	20414	 13.4625	 0.0	 560.4	 -560.4	 1.0	 100.0	 1	 24	 2.925	 0.0	 0.0	 0.0	 0.0	 0.0	 0.0	 0.0	 0.0	 0.0	 0.0	 28.05; % COW
	20414	 257.0	 0.0	 1236.0	 -1236.0	 1.0	 100.0	 1	 404	 110.0	 0.0	 0.0	 0.0	 0.0	 0.0	 0.0	 0.0	 0.0	 0.0	 0.0	 463.0; % COW
	20414	 72.0	 0.0	 3090.0	 -3090.0	 1.0	 100.0	 1	 117	 27.0	 0.0	 0.0	 0.0	 0.0	 0.0	 0.0	 0.0	 0.0	 0.0	 0.0	 100.0; % COW
	20414	 38.25	 0.0	 6517.2	 -6517.2	 1.0	 100.0	 1	 54	 22.5	 0.0	 0.0	 0.0	 0.0	 0.0	 0.0	 0.0	 0.0	 0.0	 0.0	 83.0; % NG
	20414	 39.75	 0.0	 5804.4	 -5804.4	 1.0	 100.0	 1	 57	 22.5	 0.0	 0.0	 0.0	 0.0	 0.0	 0.0	 0.0	 0.0	 0.0	 0.0	 83.0; % NG
	20414	 106.5	 0.0	 8324.4	 -8324.4	 1.0	 100.0	 1	 168	 45.0	 0.0	 0.0	 0.0	 0.0	 0.0	 0.0	 0.0	 0.0	 0.0	 0.0	 161.0; % NG
	20414	 13.9625	 0.0	 3054.0	 -3054.0	 1.0	 100.0	 1	 25	 2.925	 0.0	 0.0	 0.0	 0.0	 0.0	 0.0	 0.0	 0.0	 0.0	 0.0	 28.05; % NG
	20414	 10.9625	 0.0	 11918.4	 -11918.4	 1.0	 100.0	 1	 19	 2.925	 0.0	 0.0	 0.0	 0.0	 0.0	 0.0	 0.0	 0.0	 0.0	 0.0	 28.05; % COW
	20414	 17.4625	 0.0	 11661.6	 -11661.6	 1.0	 100.0	 1	 32	 2.925	 0.0	 0.0	 0.0	 0.0	 0.0	 0.0	 0.0	 0.0	 0.0	 0.0	 28.05; % NG
	20414	 6.4625	 0.0	 3158.4	 -3158.4	 1.0	 100.0	 1	 10	 2.925	 0.0	 0.0	 0.0	 0.0	 0.0	 0.0	 0.0	 0.0	 0.0	 0.0	 28.05; % PEL
	20415	 54.0	 9.0	 103.2	 -85.2	 1.0	 100.0	 1	 88	 20.0	 0.0	 0.0	 0.0	 0.0	 0.0	 0.0	 0.0	 0.0	 0.0	 0.0	 166.6; % PEL
	20415	 77.0	 10.2	 103.2	 -82.8	 1.0	 100.0	 1	 134	 20.0	 0.0	 0.0	 0.0	 0.0	 0.0	 0.0	 0.0	 0.0	 0.0	 0.0	 166.6; % PEL
	20415	 74.5	 10.2	 103.2	 -82.8	 1.0	 100.0	 1	 129	 20.0	 0.0	 0.0	 0.0	 0.0	 0.0	 0.0	 0.0	 0.0	 0.0	 0.0	 166.6; % NG
	20415	 116.5	 46.25	 200.2	 -107.7	 1.0	 100.0	 1	 193	 40.0	 0.0	 0.0	 0.0	 0.0	 0.0	 0.0	 0.0	 0.0	 0.0	 0.0	 323.0; % NG
	20416	 250.0	 0.0	 238.0	 -238.0	 1.0	 100.0	 1	 475	 25.0	 0.0	 0.0	 0.0	 0.0	 0.0	 0.0	 0.0	 0.0	 0.0	 0.0	 161.0; % COW
	20417	 49.0	 0.0	 1032.0	 -1032.0	 1.0	 100.0	 1	 73	 25.0	 0.0	 0.0	 0.0	 0.0	 0.0	 0.0	 0.0	 0.0	 0.0	 0.0	 152.5; % NG
	20417	 72.0	 0.0	 1032.0	 -1032.0	 1.0	 100.0	 1	 119	 25.0	 0.0	 0.0	 0.0	 0.0	 0.0	 0.0	 0.0	 0.0	 0.0	 0.0	 152.5; % NG
	20417	 124.75	 0.0	 1032.0	 -1032.0	 1.0	 100.0	 1	 217	 32.5	 0.0	 0.0	 0.0	 0.0	 0.0	 0.0	 0.0	 0.0	 0.0	 0.0	 215.4; % NG
	20417	 281.5	 0.0	 1032.0	 -1032.0	 1.0	 100.0	 1	 413	 150.0	 0.0	 0.0	 0.0	 0.0	 0.0	 0.0	 0.0	 0.0	 0.0	 0.0	 579.7; % COW
	20418	 120.5	 0.0	 120.0	 -120.0	 1.0	 100.0	 1	 240	 1.0	 0.0	 0.0	 0.0	 0.0	 0.0	 0.0	 0.0	 0.0	 0.0	 0.0	 55.0; % NG
	20418	 91.1	 0.0	 91.0	 -91.0	 1.0	 100.0	 1	 181	 1.2	 0.0	 0.0	 0.0	 0.0	 0.0	 0.0	 0.0	 0.0	 0.0	 0.0	 30.4; % NG
	20418	 150.1	 0.0	 150.0	 -150.0	 1.0	 100.0	 1	 299	 1.2	 0.0	 0.0	 0.0	 0.0	 0.0	 0.0	 0.0	 0.0	 0.0	 0.0	 30.4; % NG
	20418	 76.6	 0.0	 76.0	 -76.0	 1.0	 100.0	 1	 152	 1.2	 0.0	 0.0	 0.0	 0.0	 0.0	 0.0	 0.0	 0.0	 0.0	 0.0	 30.4; % PEL
	20418	 156.6	 0.0	 156.0	 -156.0	 1.0	 100.0	 1	 312	 1.2	 0.0	 0.0	 0.0	 0.0	 0.0	 0.0	 0.0	 0.0	 0.0	 0.0	 30.4; % COW
	20418	 97.6	 0.0	 97.0	 -97.0	 1.0	 100.0	 1	 194	 1.2	 0.0	 0.0	 0.0	 0.0	 0.0	 0.0	 0.0	 0.0	 0.0	 0.0	 30.4; % NG
	20418	 88.5	 0.0	 88.0	 -88.0	 1.0	 100.0	 1	 175	 2.0	 0.0	 0.0	 0.0	 0.0	 0.0	 0.0	 0.0	 0.0	 0.0	 0.0	 40.0; % PEL
	20418	 128.0	 0.0	 128.0	 -128.0	 1.0	 100.0	 1	 255	 1.0	 0.0	 0.0	 0.0	 0.0	 0.0	 0.0	 0.0	 0.0	 0.0	 0.0	 32.0; % NG
	20419	 411.75	 0.0	 389635.2	 -389635.2	 1.0	 100.0	 1	 791	 32.5	 0.0	 0.0	 0.0	 0.0	 0.0	 0.0	 0.0	 0.0	 0.0	 0.0	 150.0; % NG
	20419	 411.75	 0.0	 19435641.6	 -19435641.6	 1.0	 100.0	 1	 791	 32.5	 0.0	 0.0	 0.0	 0.0	 0.0	 0.0	 0.0	 0.0	 0.0	 0.0	 150.0; % NG
	20419	 582.625	 0.0	 272574.0	 -272574.0	 1.0	 100.0	 1	 1136	 29.25	 0.0	 0.0	 0.0	 0.0	 0.0	 0.0	 0.0	 0.0	 0.0	 0.0	 150.0; % COW
	20419	 406.625	 0.0	 19552927.2	 -19552927.2	 1.0	 100.0	 1	 784	 29.25	 0.0	 0.0	 0.0	 0.0	 0.0	 0.0	 0.0	 0.0	 0.0	 0.0	 150.0; % NG
	20421	 163.0	 0.0	 146.0	 -146.0	 1.0	 100.0	 1	 291	 35.0	 0.0	 0.0	 0.0	 0.0	 0.0	 0.0	 0.0	 0.0	 0.0	 0.0	 129.0; % COW
	20421	 243.5	 0.0	 226.0	 -226.0	 1.0	 100.0	 1	 452	 35.0	 0.0	 0.0	 0.0	 0.0	 0.0	 0.0	 0.0	 0.0	 0.0	 0.0	 129.0; % NG
	20422	 219.6325	 0.0	 234.0	 -234.0	 1.0	 100.0	 1	 422	 17.265	 0.0	 0.0	 0.0	 0.0	 0.0	 0.0	 0.0	 0.0	 0.0	 0.0	 138.1; % NG
	20422	 411.93	 0.0	 400.0	 -400.0	 1.0	 100.0	 1	 799	 24.86	 0.0	 0.0	 0.0	 0.0	 0.0	 0.0	 0.0	 0.0	 0.0	 0.0	 127.5; % COW
	20422	 189.48	 0.0	 234.0	 -234.0	 1.0	 100.0	 1	 354	 24.96	 0.0	 0.0	 0.0	 0.0	 0.0	 0.0	 0.0	 0.0	 0.0	 0.0	 128.0; % NG
	20422	 215.98	 0.0	 234.0	 -234.0	 1.0	 100.0	 1	 407	 24.96	 0.0	 0.0	 0.0	 0.0	 0.0	 0.0	 0.0	 0.0	 0.0	 0.0	 128.0; % PEL
	20423	 242.25	 0.0	 231.0	 -231.0	 1.0	 100.0	 1	 462	 22.5	 0.0	 0.0	 0.0	 0.0	 0.0	 0.0	 0.0	 0.0	 0.0	 0.0	 125.1; % COW
	20423	 259.25	 0.0	 248.0	 -248.0	 1.0	 100.0	 1	 496	 22.5	 0.0	 0.0	 0.0	 0.0	 0.0	 0.0	 0.0	 0.0	 0.0	 0.0	 125.1; % COW
	20423	 213.25	 0.0	 202.0	 -202.0	 1.0	 100.0	 1	 404	 22.5	 0.0	 0.0	 0.0	 0.0	 0.0	 0.0	 0.0	 0.0	 0.0	 0.0	 125.1; % NG
	20423	 393.25	 0.0	 382.0	 -382.0	 1.0	 100.0	 1	 764	 22.5	 0.0	 0.0	 0.0	 0.0	 0.0	 0.0	 0.0	 0.0	 0.0	 0.0	 125.1; % COW
	20425	 379.25	 0.0	 365.0	 -365.0	 1.0	 100.0	 1	 730	 28.5	 0.0	 0.0	 0.0	 0.0	 0.0	 0.0	 0.0	 0.0	 0.0	 0.0	 125.0; % NG
	20425	 284.0	 0.0	 272.0	 -272.0	 1.0	 100.0	 1	 543	 25.0	 0.0	 0.0	 0.0	 0.0	 0.0	 0.0	 0.0	 0.0	 0.0	 0.0	 123.2; % NG
	20425	 364.0	 0.0	 352.0	 -352.0	 1.0	 100.0	 1	 703	 25.0	 0.0	 0.0	 0.0	 0.0	 0.0	 0.0	 0.0	 0.0	 0.0	 0.0	 112.5; % NG
	20425	 295.0	 0.0	 283.0	 -283.0	 1.0	 100.0	 1	 565	 25.0	 0.0	 0.0	 0.0	 0.0	 0.0	 0.0	 0.0	 0.0	 0.0	 0.0	 112.5; % NG
	20425	 293.75	 0.0	 280.0	 -280.0	 1.0	 100.0	 1	 560	 27.5	 0.0	 0.0	 0.0	 0.0	 0.0	 0.0	 0.0	 0.0	 0.0	 0.0	 112.5; % NG
	20425	 350.0	 0.0	 325.0	 -325.0	 1.0	 100.0	 1	 650	 50.0	 0.0	 0.0	 0.0	 0.0	 0.0	 0.0	 0.0	 0.0	 0.0	 0.0	 192.0; % COW
	20425	 354.5	 0.0	 322.0	 -322.0	 1.0	 100.0	 1	 644	 65.0	 0.0	 0.0	 0.0	 0.0	 0.0	 0.0	 0.0	 0.0	 0.0	 0.0	 387.0; % NG
	20428	 131.25	 0.0	 120.0	 -120.0	 1.0	 100.0	 1	 240	 22.5	 0.0	 0.0	 0.0	 0.0	 0.0	 0.0	 0.0	 0.0	 0.0	 0.0	 103.7; % COW
	20428	 305.75	 0.0	 272.0	 -272.0	 1.0	 100.0	 1	 544	 67.5	 0.0	 0.0	 0.0	 0.0	 0.0	 0.0	 0.0	 0.0	 0.0	 0.0	 265.2; % NG
	20429	 7.85	 0.0	 307.2	 -307.2	 1.0	 100.0	 1	 15	 0.7	 0.0	 0.0	 0.0	 0.0	 0.0	 0.0	 0.0	 0.0	 0.0	 0.0	 0.0; % NG
	20430	 9.4	 0.0	 531.6	 -531.6	 1.0	 100.0	 1	 17	 1.8	 0.0	 0.0	 0.0	 0.0	 0.0	 0.0	 0.0	 0.0	 0.0	 0.0	 0.0; % NG
	20430	 10.15	 0.0	 525.6	 -525.6	 1.0	 100.0	 1	 20	 0.3	 0.0	 0.0	 0.0	 0.0	 0.0	 0.0	 0.0	 0.0	 0.0	 0.0	 0.0; % NG
	20430	 26.0	 0.0	 534.0	 -534.0	 1.0	 100.0	 1	 42	 10.0	 0.0	 0.0	 0.0	 0.0	 0.0	 0.0	 0.0	 0.0	 0.0	 0.0	 0.0; % NG
	20430	 19.575	 0.0	 543.6	 -543.6	 1.0	 100.0	 1	 39	 0.15	 0.0	 0.0	 0.0	 0.0	 0.0	 0.0	 0.0	 0.0	 0.0	 0.0	 0.0; % NG
	20431	 8.375	 0.0	 57.6	 -57.6	 1.0	 100.0	 1	 16	 0.75	 0.0	 0.0	 0.0	 0.0	 0.0	 0.0	 0.0	 0.0	 0.0	 0.0	 0.0; % NG
	20432	 30.175	 0.0	 43.5	 -43.5	 1.0	 100.0	 1	 60	 0.35	 0.0	 0.0	 0.0	 0.0	 0.0	 0.0	 0.0	 0.0	 0.0	 0.0	 0.0; % NG
	20433	 41.5	 0.0	 39.0	 -39.0	 1.0	 100.0	 1	 78	 5.0	 0.0	 0.0	 0.0	 0.0	 0.0	 0.0	 0.0	 0.0	 0.0	 0.0	 94.6; % NG
	20434	 35.25	 0.0	 33.0	 -33.0	 1.0	 100.0	 1	 66	 4.5	 0.0	 0.0	 0.0	 0.0	 0.0	 0.0	 0.0	 0.0	 0.0	 0.0	 90.0; % NG
	20435	 47.75	 0.0	 47.0	 -47.0	 1.0	 100.0	 1	 93	 2.5	 0.0	 0.0	 0.0	 0.0	 0.0	 0.0	 0.0	 0.0	 0.0	 0.0	 30.0; % NG
	20435	 11.6175	 0.0	 11.0	 -11.0	 1.0	 100.0	 1	 22	 1.235	 0.0	 0.0	 0.0	 0.0	 0.0	 0.0	 0.0	 0.0	 0.0	 0.0	 14.8; % NG
	20435	 25.6175	 0.0	 25.0	 -25.0	 1.0	 100.0	 1	 50	 1.235	 0.0	 0.0	 0.0	 0.0	 0.0	 0.0	 0.0	 0.0	 0.0	 0.0	 14.8; % NG
	20435	 27.1175	 0.0	 27.0	 -27.0	 1.0	 100.0	 1	 53	 1.235	 0.0	 0.0	 0.0	 0.0	 0.0	 0.0	 0.0	 0.0	 0.0	 0.0	 14.8; % COW
	20435	 14.6175	 0.0	 14.0	 -14.0	 1.0	 100.0	 1	 28	 1.235	 0.0	 0.0	 0.0	 0.0	 0.0	 0.0	 0.0	 0.0	 0.0	 0.0	 14.8; % NG
	20435	 23.1175	 0.0	 23.0	 -23.0	 1.0	 100.0	 1	 45	 1.235	 0.0	 0.0	 0.0	 0.0	 0.0	 0.0	 0.0	 0.0	 0.0	 0.0	 14.8; % NG
	20435	 18.1175	 0.0	 18.0	 -18.0	 1.0	 100.0	 1	 35	 1.235	 0.0	 0.0	 0.0	 0.0	 0.0	 0.0	 0.0	 0.0	 0.0	 0.0	 14.8; % NG
	20436	 105.5	 0.0	 93.0	 -93.0	 1.0	 100.0	 1	 186	 25.0	 0.0	 0.0	 0.0	 0.0	 0.0	 0.0	 0.0	 0.0	 0.0	 0.0	 86.5; % COW
	20436	 103.5	 0.0	 91.0	 -91.0	 1.0	 100.0	 1	 182	 25.0	 0.0	 0.0	 0.0	 0.0	 0.0	 0.0	 0.0	 0.0	 0.0	 0.0	 86.5; % NG
	20436	 205.5	 0.0	 193.0	 -193.0	 1.0	 100.0	 1	 386	 25.0	 0.0	 0.0	 0.0	 0.0	 0.0	 0.0	 0.0	 0.0	 0.0	 0.0	 86.5; % NG
	20436	 93.5	 0.0	 81.0	 -81.0	 1.0	 100.0	 1	 162	 25.0	 0.0	 0.0	 0.0	 0.0	 0.0	 0.0	 0.0	 0.0	 0.0	 0.0	 86.5; % NG
	20436	 224.5	 0.0	 212.0	 -212.0	 1.0	 100.0	 1	 424	 25.0	 0.0	 0.0	 0.0	 0.0	 0.0	 0.0	 0.0	 0.0	 0.0	 0.0	 86.5; % COW
	20436	 74.0	 0.0	 62.0	 -62.0	 1.0	 100.0	 1	 123	 25.0	 0.0	 0.0	 0.0	 0.0	 0.0	 0.0	 0.0	 0.0	 0.0	 0.0	 86.5; % NG
	20436	 192.5	 0.0	 180.0	 -180.0	 1.0	 100.0	 1	 360	 25.0	 0.0	 0.0	 0.0	 0.0	 0.0	 0.0	 0.0	 0.0	 0.0	 0.0	 86.5; % COW
	20436	 173.0	 0.0	 161.0	 -161.0	 1.0	 100.0	 1	 321	 25.0	 0.0	 0.0	 0.0	 0.0	 0.0	 0.0	 0.0	 0.0	 0.0	 0.0	 86.5; % NG
	20437	 125.25	 0.0	 181.2	 -181.2	 1.0	 100.0	 1	 228	 22.5	 0.0	 0.0	 0.0	 0.0	 0.0	 0.0	 0.0	 0.0	 0.0	 0.0	 85.0; % NG
	20437	 149.25	 0.0	 181.2	 -181.2	 1.0	 100.0	 1	 276	 22.5	 0.0	 0.0	 0.0	 0.0	 0.0	 0.0	 0.0	 0.0	 0.0	 0.0	 85.0; % NG
	20437	 169.25	 0.0	 181.2	 -181.2	 1.0	 100.0	 1	 316	 22.5	 0.0	 0.0	 0.0	 0.0	 0.0	 0.0	 0.0	 0.0	 0.0	 0.0	 85.0; % NG
	20437	 139.25	 0.0	 181.2	 -181.2	 1.0	 100.0	 1	 256	 22.5	 0.0	 0.0	 0.0	 0.0	 0.0	 0.0	 0.0	 0.0	 0.0	 0.0	 85.0; % NG
	20438	 56.0	 0.0	 118.8	 -118.8	 1.0	 100.0	 1	 102	 10.0	 0.0	 0.0	 0.0	 0.0	 0.0	 0.0	 0.0	 0.0	 0.0	 0.0	 67.0; % NG
	20438	 24.5	 0.0	 118.8	 -118.8	 1.0	 100.0	 1	 39	 10.0	 0.0	 0.0	 0.0	 0.0	 0.0	 0.0	 0.0	 0.0	 0.0	 0.0	 67.0; % PEL
	20438	 36.0	 0.0	 118.8	 -118.8	 1.0	 100.0	 1	 62	 10.0	 0.0	 0.0	 0.0	 0.0	 0.0	 0.0	 0.0	 0.0	 0.0	 0.0	 67.0; % NG
	20438	 22.5	 0.0	 118.8	 -118.8	 1.0	 100.0	 1	 35	 10.0	 0.0	 0.0	 0.0	 0.0	 0.0	 0.0	 0.0	 0.0	 0.0	 0.0	 67.0; % PEL
	20438	 36.5	 0.0	 118.8	 -118.8	 1.0	 100.0	 1	 63	 10.0	 0.0	 0.0	 0.0	 0.0	 0.0	 0.0	 0.0	 0.0	 0.0	 0.0	 67.0; % PEL
	20438	 41.5	 0.0	 118.8	 -118.8	 1.0	 100.0	 1	 73	 10.0	 0.0	 0.0	 0.0	 0.0	 0.0	 0.0	 0.0	 0.0	 0.0	 0.0	 67.0; % PEL
	20439	 67.75	 0.0	 61.0	 -61.0	 1.0	 100.0	 1	 122	 13.5	 0.0	 0.0	 0.0	 0.0	 0.0	 0.0	 0.0	 0.0	 0.0	 0.0	 61.0; % NG
	20440	 353.45	 0.0	 348.0	 -348.0	 1.0	 100.0	 1	 695	 11.9	 0.0	 0.0	 0.0	 0.0	 0.0	 0.0	 0.0	 0.0	 0.0	 0.0	 50.0; % COW
	20440	 291.95	 0.0	 286.0	 -286.0	 1.0	 100.0	 1	 572	 11.9	 0.0	 0.0	 0.0	 0.0	 0.0	 0.0	 0.0	 0.0	 0.0	 0.0	 50.0; % NG
	20440	 237.76	 0.0	 231.0	 -231.0	 1.0	 100.0	 1	 461	 14.52	 0.0	 0.0	 0.0	 0.0	 0.0	 0.0	 0.0	 0.0	 0.0	 0.0	 61.0; % NG
	20440	 262.26	 0.0	 255.0	 -255.0	 1.0	 100.0	 1	 510	 14.52	 0.0	 0.0	 0.0	 0.0	 0.0	 0.0	 0.0	 0.0	 0.0	 0.0	 61.0; % NG
	20440	 260.26	 0.0	 253.0	 -253.0	 1.0	 100.0	 1	 506	 14.52	 0.0	 0.0	 0.0	 0.0	 0.0	 0.0	 0.0	 0.0	 0.0	 0.0	 61.0; % NG
	20442	 88.5	 0.0	 204.0	 -204.0	 1.0	 100.0	 1	 172	 5.0	 0.0	 0.0	 0.0	 0.0	 0.0	 0.0	 0.0	 0.0	 0.0	 0.0	 59.0; % PEL
	20442	 268.5	 0.0	 266.0	 -266.0	 1.0	 100.0	 1	 532	 5.0	 0.0	 0.0	 0.0	 0.0	 0.0	 0.0	 0.0	 0.0	 0.0	 0.0	 59.0; % NG
	20442	 75.5	 0.0	 204.0	 -204.0	 1.0	 100.0	 1	 146	 5.0	 0.0	 0.0	 0.0	 0.0	 0.0	 0.0	 0.0	 0.0	 0.0	 0.0	 59.0; % NG
	20442	 88.5	 0.0	 204.0	 -204.0	 1.0	 100.0	 1	 172	 5.0	 0.0	 0.0	 0.0	 0.0	 0.0	 0.0	 0.0	 0.0	 0.0	 0.0	 59.0; % PEL
	20444	 14.0	 0.0	 230.4	 -230.4	 1.0	 100.0	 1	 23	 5.0	 0.0	 0.0	 0.0	 0.0	 0.0	 0.0	 0.0	 0.0	 0.0	 0.0	 51.0; % NG
	20444	 20.5	 0.0	 230.4	 -230.4	 1.0	 100.0	 1	 36	 5.0	 0.0	 0.0	 0.0	 0.0	 0.0	 0.0	 0.0	 0.0	 0.0	 0.0	 63.2; % NG
	20444	 15.0	 0.0	 230.4	 -230.4	 1.0	 100.0	 1	 29	 1.0	 0.0	 0.0	 0.0	 0.0	 0.0	 0.0	 0.0	 0.0	 0.0	 0.0	 62.0; % NG
	20445	 47.0	 0.0	 6374.4	 -6374.4	 1.0	 100.0	 1	 77	 17.0	 0.0	 0.0	 0.0	 0.0	 0.0	 0.0	 0.0	 0.0	 0.0	 0.0	 50.0; % NG
	20445	 56.0	 0.0	 8466.0	 -8466.0	 1.0	 100.0	 1	 85	 27.0	 0.0	 0.0	 0.0	 0.0	 0.0	 0.0	 0.0	 0.0	 0.0	 0.0	 113.6; % COW
	20445	 39.5	 0.0	 9195.6	 -9195.6	 1.0	 100.0	 1	 63	 16.0	 0.0	 0.0	 0.0	 0.0	 0.0	 0.0	 0.0	 0.0	 0.0	 0.0	 69.0; % NG
	20445	 33.5	 0.0	 4058.4	 -4058.4	 1.0	 100.0	 1	 51	 16.0	 0.0	 0.0	 0.0	 0.0	 0.0	 0.0	 0.0	 0.0	 0.0	 0.0	 69.0; % PEL
	20445	 32.64	 0.0	 4590.0	 -4590.0	 1.0	 100.0	 1	 57	 8.28	 0.0	 0.0	 0.0	 0.0	 0.0	 0.0	 0.0	 0.0	 0.0	 0.0	 46.0; % PEL
	20445	 49.64	 0.0	 3363.6	 -3363.6	 1.0	 100.0	 1	 91	 8.28	 0.0	 0.0	 0.0	 0.0	 0.0	 0.0	 0.0	 0.0	 0.0	 0.0	 46.0; % COW
	20446	 4.5	 0.0	 90.0	 -90.0	 1.0	 100.0	 1	 8	 1.0	 0.0	 0.0	 0.0	 0.0	 0.0	 0.0	 0.0	 0.0	 0.0	 0.0	 41.8; % NG
	20446	 13.5	 0.0	 90.0	 -90.0	 1.0	 100.0	 1	 26	 1.0	 0.0	 0.0	 0.0	 0.0	 0.0	 0.0	 0.0	 0.0	 0.0	 0.0	 41.8; % NG
	20448	 178.25	 0.0	 174.0	 -174.0	 1.0	 100.0	 1	 348	 8.5	 0.0	 0.0	 0.0	 0.0	 0.0	 0.0	 0.0	 0.0	 0.0	 0.0	 41.4; % NG
	20448	 182.25	 0.0	 178.0	 -178.0	 1.0	 100.0	 1	 356	 8.5	 0.0	 0.0	 0.0	 0.0	 0.0	 0.0	 0.0	 0.0	 0.0	 0.0	 41.4; % PEL
	20448	 198.0	 0.0	 189.0	 -189.0	 1.0	 100.0	 1	 378	 18.0	 0.0	 0.0	 0.0	 0.0	 0.0	 0.0	 0.0	 0.0	 0.0	 0.0	 85.9; % PEL
	20449	 96.0175	 0.0	 93.0	 -93.0	 1.0	 100.0	 1	 185	 7.035	 0.0	 0.0	 0.0	 0.0	 0.0	 0.0	 0.0	 0.0	 0.0	 0.0	 40.2; % NG
	20449	 81.0375	 0.0	 75.0	 -75.0	 1.0	 100.0	 1	 150	 12.075	 0.0	 0.0	 0.0	 0.0	 0.0	 0.0	 0.0	 0.0	 0.0	 0.0	 69.0; % NG
	20449	 118.65	 0.0	 116.0	 -116.0	 1.0	 100.0	 1	 231	 6.3	 0.0	 0.0	 0.0	 0.0	 0.0	 0.0	 0.0	 0.0	 0.0	 0.0	 35.0; % NG
	20450	 46.5	 0.0	 108.0	 -108.0	 1.0	 100.0	 1	 79	 14.0	 0.0	 0.0	 0.0	 0.0	 0.0	 0.0	 0.0	 0.0	 0.0	 0.0	 60.9; % PEL
	20450	 32.25	 0.0	 108.0	 -108.0	 1.0	 100.0	 1	 58	 6.5	 0.0	 0.0	 0.0	 0.0	 0.0	 0.0	 0.0	 0.0	 0.0	 0.0	 33.0; % COW
	20451	 10.25	 0.15	 23.1	 -22.8	 1.0	 100.0	 1	 18	 2.5	 0.0	 0.0	 0.0	 0.0	 0.0	 0.0	 0.0	 0.0	 0.0	 0.0	 30.8; % NG
	20452	 38.375	 0.0	 36.0	 -36.0	 1.0	 100.0	 1	 72	 4.75	 0.0	 0.0	 0.0	 0.0	 0.0	 0.0	 0.0	 0.0	 0.0	 0.0	 25.0; % NG
	20453	 42.875	 0.0	 43.0	 -43.0	 1.0	 100.0	 1	 85	 0.75	 0.0	 0.0	 0.0	 0.0	 0.0	 0.0	 0.0	 0.0	 0.0	 0.0	 12.05; % PEL
	20453	 42.375	 0.0	 42.0	 -42.0	 1.0	 100.0	 1	 84	 0.75	 0.0	 0.0	 0.0	 0.0	 0.0	 0.0	 0.0	 0.0	 0.0	 0.0	 12.05; % NG
	20454	 2.6875	 0.0	 16.8	 -16.8	 1.0	 100.0	 1	 5	 0.375	 0.0	 0.0	 0.0	 0.0	 0.0	 0.0	 0.0	 0.0	 0.0	 0.0	 5.85; % COW
	20454	 7.6875	 0.0	 16.8	 -16.8	 1.0	 100.0	 1	 15	 0.375	 0.0	 0.0	 0.0	 0.0	 0.0	 0.0	 0.0	 0.0	 0.0	 0.0	 5.85; % NG
	20454	 9.6875	 0.0	 16.8	 -16.8	 1.0	 100.0	 1	 19	 0.375	 0.0	 0.0	 0.0	 0.0	 0.0	 0.0	 0.0	 0.0	 0.0	 0.0	 5.85; % NG
	20454	 10.1875	 0.0	 16.8	 -16.8	 1.0	 100.0	 1	 20	 0.375	 0.0	 0.0	 0.0	 0.0	 0.0	 0.0	 0.0	 0.0	 0.0	 0.0	 5.85; % NG
	20455	 54.5	 0.0	 54.0	 -54.0	 1.0	 100.0	 1	 108	 1.0	 0.0	 0.0	 0.0	 0.0	 0.0	 0.0	 0.0	 0.0	 0.0	 0.0	 11.1; % COW
	20455	 109.5	 0.0	 109.0	 -109.0	 1.0	 100.0	 1	 218	 1.0	 0.0	 0.0	 0.0	 0.0	 0.0	 0.0	 0.0	 0.0	 0.0	 0.0	 11.1; % NG
	20457	 7.25	 4.5	 16.2	 -7.2	 1.0	 100.0	 1	 14	 0.5	 0.0	 0.0	 0.0	 0.0	 0.0	 0.0	 0.0	 0.0	 0.0	 0.0	 21.6; % PEL
	20457	 4.25	 4.5	 16.2	 -7.2	 1.0	 100.0	 1	 8	 0.5	 0.0	 0.0	 0.0	 0.0	 0.0	 0.0	 0.0	 0.0	 0.0	 0.0	 21.6; % NG
	20457	 8.25	 4.1	 16.2	 -8.0	 1.0	 100.0	 1	 16	 0.5	 0.0	 0.0	 0.0	 0.0	 0.0	 0.0	 0.0	 0.0	 0.0	 0.0	 21.6; % PEL
	20458	 629.5	 0.0	 554.0	 -554.0	 1.0	 100.0	 1	 1108	 151.0	 0.0	 0.0	 0.0	 0.0	 0.0	 0.0	 0.0	 0.0	 0.0	 0.0	 616.2; % NUC
	20458	 63.5	 0.0	 67.2	 -67.2	 1.0	 100.0	 1	 92	 35.0	 0.0	 0.0	 0.0	 0.0	 0.0	 0.0	 0.0	 0.0	 0.0	 0.0	 87.1; % NG
	20458	 80.5	 0.0	 67.2	 -67.2	 1.0	 100.0	 1	 126	 35.0	 0.0	 0.0	 0.0	 0.0	 0.0	 0.0	 0.0	 0.0	 0.0	 0.0	 87.1; % NG
	20458	 80.0	 0.0	 67.2	 -67.2	 1.0	 100.0	 1	 125	 35.0	 0.0	 0.0	 0.0	 0.0	 0.0	 0.0	 0.0	 0.0	 0.0	 0.0	 87.1; % NG
	20458	 149.0	 0.0	 132.0	 -132.0	 1.0	 100.0	 1	 263	 35.0	 0.0	 0.0	 0.0	 0.0	 0.0	 0.0	 0.0	 0.0	 0.0	 0.0	 87.1; % NG
	20458	 81.0	 0.0	 67.2	 -67.2	 1.0	 100.0	 1	 127	 35.0	 0.0	 0.0	 0.0	 0.0	 0.0	 0.0	 0.0	 0.0	 0.0	 0.0	 87.1; % PEL
	20458	 79.0	 0.0	 67.2	 -67.2	 1.0	 100.0	 1	 123	 35.0	 0.0	 0.0	 0.0	 0.0	 0.0	 0.0	 0.0	 0.0	 0.0	 0.0	 87.1; % NG
	20458	 224.5	 0.0	 207.0	 -207.0	 1.0	 100.0	 1	 414	 35.0	 0.0	 0.0	 0.0	 0.0	 0.0	 0.0	 0.0	 0.0	 0.0	 0.0	 87.1; % NG
	20458	 104.5	 0.0	 87.0	 -87.0	 1.0	 100.0	 1	 174	 35.0	 0.0	 0.0	 0.0	 0.0	 0.0	 0.0	 0.0	 0.0	 0.0	 0.0	 87.1; % NG
	20458	 251.5	 79.515	 364.43	 -205.4	 1.0	 100.0	 1	 352	 151.0	 0.0	 0.0	 0.0	 0.0	 0.0	 0.0	 0.0	 0.0	 0.0	 0.0	 616.2; % NG
	20458	 462.0	 0.0	 387.0	 -387.0	 1.0	 100.0	 1	 773	 151.0	 0.0	 0.0	 0.0	 0.0	 0.0	 0.0	 0.0	 0.0	 0.0	 0.0	 616.2; % COW
	20458	 89.25	 30.95	 198.6	 -136.7	 1.0	 100.0	 1	 166	 12.5	 0.0	 0.0	 0.0	 0.0	 0.0	 0.0	 0.0	 0.0	 0.0	 0.0	 410.0; % NG
	20458	 77.5	 54.4	 235.5	 -126.7	 1.0	 100.0	 1	 135	 20.0	 0.0	 0.0	 0.0	 0.0	 0.0	 0.0	 0.0	 0.0	 0.0	 0.0	 380.0; % NG
	20458	 113.0	 0.0	 96.0	 -96.0	 1.0	 100.0	 1	 191	 35.0	 0.0	 0.0	 0.0	 0.0	 0.0	 0.0	 0.0	 0.0	 0.0	 0.0	 87.1; % NG
	20458	 137.5	 0.0	 120.0	 -120.0	 1.0	 100.0	 1	 240	 35.0	 0.0	 0.0	 0.0	 0.0	 0.0	 0.0	 0.0	 0.0	 0.0	 0.0	 87.1; % NG
	20458	 84.5	 0.0	 67.2	 -67.2	 1.0	 100.0	 1	 134	 35.0	 0.0	 0.0	 0.0	 0.0	 0.0	 0.0	 0.0	 0.0	 0.0	 0.0	 87.1; % NG
	20458	 64.0	 0.0	 67.2	 -67.2	 1.0	 100.0	 1	 93	 35.0	 0.0	 0.0	 0.0	 0.0	 0.0	 0.0	 0.0	 0.0	 0.0	 0.0	 87.1; % NG
	20459	 1478.75	 0.0	 1216.0	 -1216.0	 1.0	 100.0	 1	 2431	 526.5	 0.0	 0.0	 0.0	 0.0	 0.0	 0.0	 0.0	 0.0	 0.0	 0.0	 0.0; % COW
	20459	 1412.0	 0.0	 1161.0	 -1161.0	 1.0	 100.0	 1	 2321	 503.0	 0.0	 0.0	 0.0	 0.0	 0.0	 0.0	 0.0	 0.0	 0.0	 0.0	 0.0; % NUC
	20460	 653.0	 0.0	 653.0	 -653.0	 1.0	 100.0	 1	 1306	 0.0	 0.0	 0.0	 0.0	 0.0	 0.0	 0.0	 0.0	 0.0	 0.0	 0.0	 0.0; % COW
	20461	 185.75	 0.0	 428.4	 -428.4	 1.0	 100.0	 1	 294	 77.5	 0.0	 0.0	 0.0	 0.0	 0.0	 0.0	 0.0	 0.0	 0.0	 0.0	 697.5; % COW
	20461	 322.25	 0.0	 428.4	 -428.4	 1.0	 100.0	 1	 567	 77.5	 0.0	 0.0	 0.0	 0.0	 0.0	 0.0	 0.0	 0.0	 0.0	 0.0	 697.5; % COW
	20461	 33.0	 0.0	 428.4	 -428.4	 1.0	 100.0	 1	 60	 6.0	 0.0	 0.0	 0.0	 0.0	 0.0	 0.0	 0.0	 0.0	 0.0	 0.0	 85.3; % COW
	20461	 66.0	 0.0	 428.4	 -428.4	 1.0	 100.0	 1	 126	 6.0	 0.0	 0.0	 0.0	 0.0	 0.0	 0.0	 0.0	 0.0	 0.0	 0.0	 85.3; % NG
	20461	 37.0	 0.0	 428.4	 -428.4	 1.0	 100.0	 1	 68	 6.0	 0.0	 0.0	 0.0	 0.0	 0.0	 0.0	 0.0	 0.0	 0.0	 0.0	 85.3; % NG
	20462	 363.0	 0.0	 303.0	 -303.0	 1.0	 100.0	 1	 606	 120.0	 0.0	 0.0	 0.0	 0.0	 0.0	 0.0	 0.0	 0.0	 0.0	 0.0	 329.8; % NG
	20462	 197.5	 33.2	 204.4	 -138.0	 1.0	 100.0	 1	 275	 120.0	 0.0	 0.0	 0.0	 0.0	 0.0	 0.0	 0.0	 0.0	 0.0	 0.0	 329.8; % NG
...
];

%% generator cost data
%	2	startup	shutdown	n	c(n-1)	...	c0
mpc.gencost = [
	2	 0.0	 0.0	 3	   0.001000	  12.513000	 2114.900000; % NUC
	2	 0.0	 0.0	 3	   0.001000	  12.513000	 2114.900000; % COW
	2	 0.0	 0.0	 3	   0.002000	  13.037000	 1047.400000; % NG
	2	 0.0	 0.0	 3	   0.002000	  13.037000	 1047.400000; % COW
	2	 0.0	 0.0	 3	   0.002000	  13.037000	 1047.400000; % NG
	2	 0.0	 0.0	 3	   0.002000	  13.037000	 1047.400000; % COW
	2	 0.0	 0.0	 3	   0.002000	  13.037000	 1047.400000; % COW
	2	 0.0	 0.0	 3	   0.034000	  24.825000	 226.450000; % NG
	2	 0.0	 0.0	 3	   0.034000	  24.825000	 226.450000; % PEL
	2	 0.0	 0.0	 3	   0.002000	  13.277000	 813.680000; % COW
	2	 0.0	 0.0	 3	   0.002000	  13.279000	 815.220000; % NG
	2	 0.0	 0.0	 3	   0.002000	  13.279000	 815.220000; % NG
	2	 0.0	 0.0	 3	   0.007000	  16.922000	 371.490000; % NG
	2	 0.0	 0.0	 3	   0.002000	  13.269000	 803.200000; % COW
	2	 0.0	 0.0	 3	   0.002000	  13.269000	 803.200000; % NG
	2	 0.0	 0.0	 3	   0.002000	  13.035000	 1052.200000; % COW
	2	 0.0	 0.0	 3	   0.002000	  13.035000	 1052.200000; % COW
	2	 0.0	 0.0	 3	   0.005000	  13.538000	 463.610000; % NG
	2	 0.0	 0.0	 3	   0.002000	  13.256000	 781.990000; % NG
	2	 0.0	 0.0	 3	   0.007000	  16.922000	 371.490000; % NG
	2	 0.0	 0.0	 3	   0.007000	  16.922000	 371.490000; % NG
	2	 0.0	 0.0	 3	   0.005000	  13.588000	 445.010000; % NG
	2	 0.0	 0.0	 3	   0.005000	  13.588000	 445.010000; % COW
	2	 0.0	 0.0	 3	   0.006000	  13.811000	 385.350000; % NG
	2	 0.0	 0.0	 3	   0.006000	  13.811000	 385.350000; % NG
	2	 0.0	 0.0	 3	   0.006000	  13.811000	 385.350000; % NG
	2	 0.0	 0.0	 3	   0.006000	  13.811000	 385.350000; % NG
	2	 0.0	 0.0	 3	   0.006000	  13.811000	 385.350000; % NG
	2	 0.0	 0.0	 3	   0.006000	  13.811000	 385.350000; % NG
	2	 0.0	 0.0	 3	   0.009000	  18.772000	 588.040000; % NG
	2	 0.0	 0.0	 3	   0.009000	  18.772000	 588.040000; % NG
	2	 0.0	 0.0	 3	   0.009000	  18.772000	 588.040000; % NG
	2	 0.0	 0.0	 3	   0.000000	   0.000000	   0.000000; % NG
	2	 0.0	 0.0	 3	   0.007000	  13.961000	 355.300000; % COW
	2	 0.0	 0.0	 3	   0.026000	  13.537000	 318.860000; % PEL
	2	 0.0	 0.0	 3	   0.003000	  13.138000	 631.770000; % NG
	2	 0.0	 0.0	 3	   0.032000	   9.547000	 2249.860000; % NG
	2	 0.0	 0.0	 3	   0.032000	   9.547000	 2249.860000; % NG
	2	 0.0	 0.0	 3	   0.009000	  18.772000	 588.040000; % NG
	2	 0.0	 0.0	 3	   0.032000	   9.547000	 2249.860000; % NG
	2	 0.0	 0.0	 3	   0.032000	   9.547000	 2249.860000; % NG
	2	 0.0	 0.0	 3	   0.032000	   9.547000	 2249.860000; % NG
	2	 0.0	 0.0	 3	   0.032000	   9.547000	 2249.860000; % NG
	2	 0.0	 0.0	 3	   0.026000	  11.398000	 993.750000; % NG
	2	 0.0	 0.0	 3	   0.026000	  11.398000	 993.750000; % NG
	2	 0.0	 0.0	 3	   0.014000	  14.920000	 188.180000; % NG
	2	 0.0	 0.0	 3	   0.046000	  77.147000	 1586.400000; % NG
	2	 0.0	 0.0	 3	   0.046000	  77.147000	 1586.400000; % COW
	2	 0.0	 0.0	 3	   0.003000	  13.196000	 696.710000; % COW
	2	 0.0	 0.0	 3	   0.014000	  14.920000	 188.180000; % COW
	2	 0.0	 0.0	 3	   0.007000	  16.922000	 371.490000; % NG
	2	 0.0	 0.0	 3	   0.007000	  16.922000	 371.490000; % NG
	2	 0.0	 0.0	 3	   0.005000	  60.757000	 2894.550000; % NG
	2	 0.0	 0.0	 3	   0.046000	  77.147000	 1586.400000; % NG
	2	 0.0	 0.0	 3	   0.046000	  77.147000	 1586.400000; % COW
	2	 0.0	 0.0	 3	   0.046000	  77.147000	 1586.400000; % NG
	2	 0.0	 0.0	 3	   0.046000	  77.147000	 1586.400000; % PEL
	2	 0.0	 0.0	 3	   0.008000	  14.135000	 307.360000; % PEL
	2	 0.0	 0.0	 3	   0.008000	  14.135000	 307.360000; % PEL
	2	 0.0	 0.0	 3	   0.008000	  14.135000	 307.360000; % NG
	2	 0.0	 0.0	 3	   0.004000	  13.397000	 512.160000; % NG
	2	 0.0	 0.0	 3	   0.013000	  22.680000	 468.140000; % COW
	2	 0.0	 0.0	 3	   0.009000	  14.342000	 276.670000; % NG
	2	 0.0	 0.0	 3	   0.009000	  14.342000	 276.670000; % NG
	2	 0.0	 0.0	 3	   0.006000	  13.813000	 382.200000; % NG
	2	 0.0	 0.0	 3	   0.002000	  13.329000	 887.350000; % COW
	2	 0.0	 0.0	 3	   0.047000	  25.435000	 175.850000; % NG
	2	 0.0	 0.0	 3	   0.014000	  22.845000	 442.950000; % NG
	2	 0.0	 0.0	 3	   0.014000	  22.845000	 442.950000; % NG
	2	 0.0	 0.0	 3	   0.014000	  22.845000	 442.950000; % PEL
	2	 0.0	 0.0	 3	   0.014000	  22.845000	 442.950000; % COW
	2	 0.0	 0.0	 3	   0.014000	  22.845000	 442.950000; % NG
	2	 0.0	 0.0	 3	   0.063000	  25.545000	 130.870000; % PEL
	2	 0.0	 0.0	 3	   0.074000	  25.545000	 111.240000; % NG
	2	 0.0	 0.0	 3	   0.009000	  14.376000	 271.890000; % NG
	2	 0.0	 0.0	 3	   0.009000	  14.376000	 271.890000; % NG
	2	 0.0	 0.0	 3	   0.009000	  14.376000	 271.890000; % COW
	2	 0.0	 0.0	 3	   0.009000	  14.376000	 271.890000; % NG
	2	 0.0	 0.0	 3	   0.007000	  16.922000	 371.490000; % COW
	2	 0.0	 0.0	 3	   0.007000	  16.922000	 371.490000; % NG
	2	 0.0	 0.0	 3	   0.016000	  23.121000	 404.830000; % NG
	2	 0.0	 0.0	 3	   0.011000	  14.595000	 239.210000; % COW
	2	 0.0	 0.0	 3	   0.011000	  14.594000	 242.120000; % NG
	2	 0.0	 0.0	 3	   0.011000	  14.594000	 242.120000; % PEL
	2	 0.0	 0.0	 3	   0.007000	  16.922000	 371.490000; % COW
	2	 0.0	 0.0	 3	   0.007000	  16.922000	 371.490000; % COW
	2	 0.0	 0.0	 3	   0.007000	  16.922000	 371.490000; % NG
	2	 0.0	 0.0	 3	   0.007000	  16.922000	 371.490000; % COW
	2	 0.0	 0.0	 3	   0.011000	  14.645000	 233.210000; % NG
	2	 0.0	 0.0	 3	   0.011000	  14.658000	 229.960000; % NG
	2	 0.0	 0.0	 3	   0.013000	  14.813000	 208.070000; % NG
	2	 0.0	 0.0	 3	   0.013000	  14.813000	 208.070000; % NG
	2	 0.0	 0.0	 3	   0.013000	  14.813000	 208.070000; % NG
	2	 0.0	 0.0	 3	   0.032000	   9.547000	 2249.860000; % COW
	2	 0.0	 0.0	 3	   0.004000	  13.172000	 584.570000; % NG
	2	 0.0	 0.0	 3	   0.014000	  14.886000	 195.250000; % COW
	2	 0.0	 0.0	 3	   0.005000	  13.597000	 442.210000; % NG
	2	 0.0	 0.0	 3	   0.000000	   0.000000	   0.000000; % NG
	2	 0.0	 0.0	 3	   0.000000	   0.000000	   0.000000; % NG
	2	 0.0	 0.0	 3	   0.000000	   0.000000	   0.000000; % NG
	2	 0.0	 0.0	 3	   0.000000	   0.000000	   0.000000; % NG
	2	 0.0	 0.0	 3	   0.000000	   0.000000	   0.000000; % NG
	2	 0.0	 0.0	 3	   0.000000	   0.000000	   0.000000; % NG
	2	 0.0	 0.0	 3	   0.000000	   0.000000	   0.000000; % NG
	2	 0.0	 0.0	 3	   0.019000	  15.070000	 176.370000; % NG
	2	 0.0	 0.0	 3	   0.026000	  24.168000	 277.160000; % NG
	2	 0.0	 0.0	 3	   0.087000	  25.545000	  94.880000; % NG
	2	 0.0	 0.0	 3	   0.027000	  24.223000	 271.680000; % NG
	2	 0.0	 0.0	 3	   0.027000	  24.223000	 271.680000; % NG
	2	 0.0	 0.0	 3	   0.027000	  24.223000	 271.680000; % COW
	2	 0.0	 0.0	 3	   0.027000	  24.223000	 271.680000; % NG
	2	 0.0	 0.0	 3	   0.027000	  24.223000	 271.680000; % NG
	2	 0.0	 0.0	 3	   0.027000	  24.223000	 271.680000; % NG
	2	 0.0	 0.0	 3	   0.007000	  16.922000	 371.490000; % COW
	2	 0.0	 0.0	 3	   0.007000	  16.922000	 371.490000; % NG
	2	 0.0	 0.0	 3	   0.007000	  16.922000	 371.490000; % NG
	2	 0.0	 0.0	 3	   0.007000	  16.922000	 371.490000; % NG
	2	 0.0	 0.0	 3	   0.007000	  16.922000	 371.490000; % COW
	2	 0.0	 0.0	 3	   0.007000	  16.922000	 371.490000; % NG
	2	 0.0	 0.0	 3	   0.007000	  16.922000	 371.490000; % COW
	2	 0.0	 0.0	 3	   0.007000	  16.922000	 371.490000; % NG
	2	 0.0	 0.0	 3	   0.007000	  16.922000	 371.490000; % NG
	2	 0.0	 0.0	 3	   0.007000	  16.922000	 371.490000; % NG
	2	 0.0	 0.0	 3	   0.007000	  16.922000	 371.490000; % NG
	2	 0.0	 0.0	 3	   0.007000	  16.922000	 371.490000; % NG
	2	 0.0	 0.0	 3	   0.026000	  13.537000	 318.860000; % NG
	2	 0.0	 0.0	 3	   0.026000	  13.537000	 318.860000; % PEL
	2	 0.0	 0.0	 3	   0.026000	  13.537000	 318.860000; % NG
	2	 0.0	 0.0	 3	   0.026000	  13.537000	 318.860000; % PEL
	2	 0.0	 0.0	 3	   0.026000	  13.537000	 318.860000; % PEL
	2	 0.0	 0.0	 3	   0.026000	  13.537000	 318.860000; % PEL
	2	 0.0	 0.0	 3	   0.053000	  14.879000	  51.340000; % NG
	2	 0.0	 0.0	 3	   0.053000	  14.879000	  51.340000; % COW
	2	 0.0	 0.0	 3	   0.053000	  14.879000	  51.340000; % NG
	2	 0.0	 0.0	 3	   0.053000	  14.879000	  51.340000; % NG
	2	 0.0	 0.0	 3	   0.053000	  14.879000	  51.340000; % NG
	2	 0.0	 0.0	 3	   0.053000	  14.879000	  51.340000; % NG
	2	 0.0	 0.0	 3	   0.026000	  13.537000	 318.860000; % PEL
	2	 0.0	 0.0	 3	   0.026000	  13.537000	 318.860000; % NG
	2	 0.0	 0.0	 3	   0.026000	  13.537000	 318.860000; % NG
	2	 0.0	 0.0	 3	   0.026000	  13.537000	 318.860000; % PEL
	2	 0.0	 0.0	 3	   0.051000	  25.545000	 163.590000; % NG
	2	 0.0	 0.0	 3	   0.039000	  25.105000	 203.100000; % NG
	2	 0.0	 0.0	 3	   0.040000	  25.160000	 199.510000; % NG
	2	 0.0	 0.0	 3	   0.030000	  16.003000	 102.290000; % NG
	2	 0.0	 0.0	 3	   0.013000	  14.778000	 211.580000; % COW
	2	 0.0	 0.0	 3	   0.022000	  15.601000	 135.810000; % NG
	2	 0.0	 0.0	 3	   0.022000	  15.601000	 135.810000; % PEL
	2	 0.0	 0.0	 3	   0.180000	  87.000000	 507.300000; % PEL
	2	 0.0	 0.0	 3	   0.180000	  87.000000	 507.300000; % COW
	2	 0.0	 0.0	 3	   0.008000	  50.578000	 1755.230000; % NG
	2	 0.0	 0.0	 3	   0.008000	  50.578000	 1755.230000; % NG
	2	 0.0	 0.0	 3	   0.026000	  13.537000	 318.860000; % NG
	2	 0.0	 0.0	 3	   0.026000	  13.537000	 318.860000; % PEL
	2	 0.0	 0.0	 3	   0.007000	  16.922000	 371.490000; % PEL
	2	 0.0	 0.0	 3	   0.036000	  16.010000	  84.870000; % NG
	2	 0.0	 0.0	 3	   0.022000	  15.587000	 137.470000; % NG
	2	 0.0	 0.0	 3	   0.246000	  87.000000	 372.940000; % NG
	2	 0.0	 0.0	 3	   0.025000	  15.780000	 122.030000; % PEL
	2	 0.0	 0.0	 3	   0.045000	  16.010000	  66.830000; % COW
	2	 0.0	 0.0	 3	   0.085000	  25.309000	 135.160000; % NG
	2	 0.0	 0.0	 3	   0.061000	  16.010000	  51.080000; % NG
	2	 0.0	 0.0	 3	   0.062000	  16.010000	  50.490000; % PEL
	2	 0.0	 0.0	 3	   0.062000	  16.010000	  50.490000; % NG
	2	 0.0	 0.0	 3	   0.114000	  25.478000	  83.380000; % COW
	2	 0.0	 0.0	 3	   0.114000	  25.478000	  83.380000; % NG
	2	 0.0	 0.0	 3	   0.114000	  25.478000	  83.380000; % NG
	2	 0.0	 0.0	 3	   0.114000	  25.478000	  83.380000; % NG
	2	 0.0	 0.0	 3	   0.026000	  13.537000	 318.860000; % COW
	2	 0.0	 0.0	 3	   0.026000	  13.537000	 318.860000; % NG
	2	 0.0	 0.0	 3	   0.062000	  14.879000	  43.970000; % PEL
	2	 0.0	 0.0	 3	   0.062000	  14.879000	  43.970000; % NG
	2	 0.0	 0.0	 3	   0.062000	  14.879000	  43.970000; % PEL
	2	 0.0	 0.0	 3	   0.002000	  15.698000	 5647.540000; % NUC
	2	 0.0	 0.0	 3	   0.009000	  18.772000	 588.040000; % NG
	2	 0.0	 0.0	 3	   0.009000	  18.772000	 588.040000; % NG
	2	 0.0	 0.0	 3	   0.009000	  18.772000	 588.040000; % NG
	2	 0.0	 0.0	 3	   0.009000	  18.772000	 588.040000; % NG
	2	 0.0	 0.0	 3	   0.009000	  18.772000	 588.040000; % PEL
	2	 0.0	 0.0	 3	   0.009000	  18.772000	 588.040000; % NG
	2	 0.0	 0.0	 3	   0.009000	  18.772000	 588.040000; % NG
	2	 0.0	 0.0	 3	   0.009000	  18.772000	 588.040000; % NG
	2	 0.0	 0.0	 3	   0.002000	  15.698000	 5647.540000; % NG
	2	 0.0	 0.0	 3	   0.002000	  15.698000	 5647.540000; % COW
	2	 0.0	 0.0	 3	   0.009000	  13.659000	 2130.630000; % NG
	2	 0.0	 0.0	 3	   0.009000	  13.659000	 2130.630000; % NG
	2	 0.0	 0.0	 3	   0.009000	  18.772000	 588.040000; % NG
	2	 0.0	 0.0	 3	   0.009000	  18.772000	 588.040000; % NG
	2	 0.0	 0.0	 3	   0.009000	  18.772000	 588.040000; % NG
	2	 0.0	 0.0	 3	   0.009000	  18.772000	 588.040000; % NG
	2	 0.0	 0.0	 3	   0.000000	   0.000000	   0.000000; % COW
	2	 0.0	 0.0	 3	   0.000000	   0.000000	   0.000000; % NUC
	2	 0.0	 0.0	 3	   0.000000	   0.000000	   0.000000; % COW
	2	 0.0	 0.0	 3	   0.002000	  12.935000	 1094.500000; % COW
	2	 0.0	 0.0	 3	   0.002000	  12.935000	 1094.500000; % COW
	2	 0.0	 0.0	 3	   0.007000	  16.922000	 371.490000; % COW
	2	 0.0	 0.0	 3	   0.007000	  16.922000	 371.490000; % NG
	2	 0.0	 0.0	 3	   0.007000	  16.922000	 371.490000; % NG
	2	 0.0	 0.0	 3	   0.009000	  14.879000	 303.560000; % NG
	2	 0.0	 0.0	 3	   0.009000	  14.879000	 303.560000; % NG
...
];

%% branch data
%	fbus	tbus	r	x	b	rateA	rateB	rateC	ratio	angle	status	angmin	angmax
mpc.branch = [
	20401	 20415	 0.000971	 0.011043	 0.09974	 736.0	 772.8	 809.6	 0.0	 0.0	 1	 -30.0	 30.0;
	20401	 20441	 0.004723	 0.052055	 0.50897	 736.0	 772.8	 809.6	 0.0	 0.0	 1	 -30.0	 30.0;
	20401	 20857	 0.001011	 0.016464	 0.25723	 1419.0	 1489.9	 1560.9	 0.0	 0.0	 1	 -30.0	 30.0;
	20401	 21714	 0.00078	 0.013891	 0.14413	 1046.0	 1098.3	 1150.6	 0.0	 0.0	 1	 -30.0	 30.0;
	20401	 21992	 0.001457	 0.016943	 0.14655	 736.0	 772.8	 809.6	 0.0	 0.0	 1	 -30.0	 30.0;
	20401	 81859	 0.000116	 0.009249	 0.0	 1600.0	 1600.0	 1600.0	 1.0	 0.0	 1	 -30.0	 30.0;
	20401	 81859	 0.000116	 0.009249	 0.0	 1600.0	 1600.0	 1600.0	 1.0	 0.0	 1	 -30.0	 30.0;
	20402	 21030	 0.000668	 0.014038	 4.9409	 3601.0	 3781.1	 3961.1	 0.0	 0.0	 1	 -30.0	 30.0;
	20402	 21381	 0.000382	 0.011965	 6.2567	 6811.0	 7151.6	 7492.1	 0.0	 0.0	 1	 -30.0	 30.0;
	20402	 81861	 0.000148	 0.011878	 0.0	 1650.0	 1650.0	 1650.0	 1.0	 0.0	 1	 -30.0	 30.0;
	20402	 81861	 0.000148	 0.011878	 0.0	 1650.0	 1650.0	 1650.0	 1.0	 0.0	 1	 -30.0	 30.0;
	20402	 81861	 0.000148	 0.011878	 0.0	 1650.0	 1650.0	 1650.0	 1.0	 0.0	 1	 -30.0	 30.0;
	20403	 20412	 0.000709	 0.0128	 0.28386	 1959.0	 2056.9	 2154.9	 0.0	 0.0	 1	 -30.0	 30.0;
	20403	 21305	 6.6e-05	 0.001087	 0.01019	 960.0	 1008.0	 1056.0	 0.0	 0.0	 1	 -30.0	 30.0;
	20403	 21313	 0.000101	 0.00186	 0.01787	 1046.0	 1098.3	 1150.6	 0.0	 0.0	 1	 -30.0	 30.0;
	20403	 21323	 0.000512	 0.008481	 0.09059	 998.0	 1047.9	 1097.8	 0.0	 0.0	 1	 -30.0	 30.0;
	20403	 81864	 0.000529	 0.036996	 0.0	 400.0	 400.0	 400.0	 1.0	 0.0	 1	 -30.0	 30.0;
	20403	 81864	 0.000529	 0.036996	 0.0	 400.0	 400.0	 400.0	 1.0	 0.0	 1	 -30.0	 30.0;
	20404	 20406	 0.000211	 0.004335	 1.5345	 3601.0	 3781.1	 3961.1	 0.0	 0.0	 1	 -30.0	 30.0;
	20404	 21483	 0.000216	 0.007605	 3.4258	 6388.0	 6707.4	 7026.8	 0.0	 0.0	 1	 -30.0	 30.0;
	20404	 81866	 0.000175	 0.013999	 0.0	 1400.0	 1400.0	 1400.0	 1.0	 0.0	 1	 -30.0	 30.0;
	20404	 81866	 0.000175	 0.013999	 0.0	 1400.0	 1400.0	 1400.0	 1.0	 0.0	 1	 -30.0	 30.0;
	20405	 20436	 7e-05	 0.000814	 0.00713	 736.0	 772.8	 809.6	 0.0	 0.0	 1	 -30.0	 30.0;
	20405	 21667	 0.001745	 0.020148	 0.17678	 736.0	 772.8	 809.6	 0.0	 0.0	 1	 -30.0	 30.0;
	20405	 21940	 0.001573	 0.019834	 0.30271	 1190.0	 1249.5	 1309.0	 0.0	 0.0	 1	 -30.0	 30.0;
	20405	 81869	 0.000282	 0.021141	 0.0	 700.0	 700.0	 700.0	 1.0	 0.0	 1	 -30.0	 30.0;
	20405	 81869	 0.000282	 0.021141	 0.0	 700.0	 700.0	 700.0	 1.0	 0.0	 1	 -30.0	 30.0;
	20406	 21483	 0.000375	 0.009514	 4.1878	 5108.0	 5363.4	 5618.8	 0.0	 0.0	 1	 -30.0	 30.0;
	20406	 81871	 0.000163	 0.013066	 0.0	 1500.0	 1500.0	 1500.0	 1.0	 0.0	 1	 -30.0	 30.0;
	20406	 81871	 0.000163	 0.013066	 0.0	 1500.0	 1500.0	 1500.0	 1.0	 0.0	 1	 -30.0	 30.0;
	81872	 20406	 0.000336	 0.025174	 0.0	 850.0	 850.0	 850.0	 1.0	 0.0	 0	 -30.0	 30.0;
	81872	 20406	 0.000336	 0.025174	 0.0	 850.0	 850.0	 850.0	 1.0	 0.0	 0	 -30.0	 30.0;
	20407	 21758	 0.000769	 0.008434	 0.08193	 736.0	 772.8	 809.6	 0.0	 0.0	 1	 -30.0	 30.0;
	20407	 21997	 0.000388	 0.004258	 0.04135	 736.0	 772.8	 809.6	 0.0	 0.0	 1	 -30.0	 30.0;
	81861	 20407	 0.001947	 0.02207	 0.20114	 736.0	 772.8	 809.6	 0.0	 0.0	 1	 -30.0	 30.0;
	20407	 81873	 0.000529	 0.036996	 0.0	 400.0	 400.0	 400.0	 1.0	 0.0	 1	 -30.0	 30.0;
	20407	 81873	 0.000529	 0.036996	 0.0	 400.0	 400.0	 400.0	 1.0	 0.0	 1	 -30.0	 30.0;
	20408	 21120	 4e-05	 0.000644	 0.00649	 970.0	 1018.5	 1067.0	 0.0	 0.0	 1	 -30.0	 30.0;
	20408	 81875	 0.000438	 0.032886	 0.0	 450.0	 450.0	 450.0	 1.0	 0.0	 1	 -30.0	 30.0;
	20408	 81875	 0.000438	 0.032886	 0.0	 450.0	 450.0	 450.0	 1.0	 0.0	 1	 -30.0	 30.0;
	20408	 81883	 0.001224	 0.019116	 0.32546	 1419.0	 1489.9	 1560.9	 0.0	 0.0	 1	 -30.0	 30.0;
	20409	 22032	 0.000379	 0.004291	 0.03906	 736.0	 772.8	 809.6	 0.0	 0.0	 1	 -30.0	 30.0;
	20409	 22034	 0.000104	 0.001923	 0.01848	 1046.0	 1098.3	 1150.6	 0.0	 0.0	 1	 -30.0	 30.0;
	20409	 81877	 0.000783	 0.042278	 0.0	 350.0	 350.0	 350.0	 1.0	 0.0	 1	 -30.0	 30.0;
	20409	 81877	 0.000783	 0.042278	 0.0	 350.0	 350.0	 350.0	 1.0	 0.0	 1	 -30.0	 30.0;
...